01479498K
 OpenBabel05171315243D

 57 61  0  0  1  0  0  0  0  0999 V2000
    3.1445    0.5090   -0.5253 C   0  0  1  0  0  0  0  0  0  0  0  0
    3.0098   -0.9605   -0.2543 C   0  0  0  0  0  0  0  0  0  0  0  0
    2.8437    0.9606   -1.9622 C   0  0  0  0  0  0  0  0  0  0  0  0
    2.3307    1.3192    0.3658 O   0  0  0  0  0  0  0  0  0  0  0  0
    1.8956   -1.5128    0.2655 C   0  0  0  0  0  0  0  0  0  0  0  0
    4.2600   -1.7519   -0.6334 C   0  0  0  0  0  0  0  0  0  0  0  0
    2.3390    0.0848   -2.9419 C   0  0  0  0  0  0  0  0  0  0  0  0
    3.0597    2.3197   -2.3098 C   0  0  0  0  0  0  0  0  0  0  0  0
    1.0772    0.8154    0.5907 C   0  0  0  0  0  0  0  0  0  0  0  0
    0.7985   -0.5543    0.5434 C   0  0  0  0  0  0  0  0  0  0  0  0
    1.8045   -2.9717    0.4742 C   0  0  0  0  0  0  0  0  0  0  0  0
    5.2761   -1.4961    0.0731 O   0  0  0  0  0  0  0  0  0  0  0  0
    4.1411   -2.5010   -1.6427 O   0  5  0  0  0  0  0  0  0  0  0  0
    2.0777    0.5820   -4.2006 C   0  0  0  0  0  0  0  0  0  0  0  0
    2.7851    2.7976   -3.5959 C   0  0  0  0  0  0  0  0  0  0  0  0
    0.0806    1.7405    0.8935 C   0  0  0  0  0  0  0  0  0  0  0  0
   -0.5206   -0.9805    0.7787 C   0  0  0  0  0  0  0  0  0  0  0  0
    2.2275   -3.5488    1.6739 C   0  0  0  0  0  0  0  0  0  0  0  0
    1.2517   -3.7874   -0.5201 C   0  0  0  0  0  0  0  0  0  0  0  0
    2.2964    1.9007   -4.5190 C   0  0  0  0  0  0  0  0  0  0  0  0
    1.5874   -0.1311   -5.2504 O   0  0  0  0  0  0  0  0  0  0  0  0
   -1.2253    1.3031    1.1055 C   0  0  0  0  0  0  0  0  0  0  0  0
   -1.5334   -0.0577    1.0512 C   0  0  0  0  0  0  0  0  0  0  0  0
    2.0624   -4.9206    1.8867 C   0  0  0  0  0  0  0  0  0  0  0  0
    1.0795   -5.1575   -0.3025 C   0  0  0  0  0  0  0  0  0  0  0  0
    1.9792    2.1822   -5.8126 O   0  0  0  0  0  0  0  0  0  0  0  0
    1.5854    0.8745   -6.2782 C   0  0  0  0  0  0  0  0  0  0  0  0
   -2.8556   -0.3480    1.2467 O   0  0  0  0  0  0  0  0  0  0  0  0
    1.4645   -5.7250    0.9127 C   0  0  0  0  0  0  0  0  0  0  0  0
   -3.2133   -1.6652    1.6780 C   0  0  0  0  0  0  0  0  0  0  0  0
    1.3286   -7.0449    1.2521 O   0  0  0  0  0  0  0  0  0  0  0  0
   -2.9527   -1.8075    3.1751 C   0  0  0  0  0  0  0  0  0  0  0  0
   -4.7040   -1.8294    1.3874 C   0  0  0  0  0  0  0  0  0  0  0  0
    0.3899   -7.7868    0.4844 C   0  0  0  0  0  0  0  0  0  0  0  0
    4.1757    0.8156   -0.3080 H   0  0  0  0  0  0  0  0  0  0  0  0
    2.1678   -0.9675   -2.7361 H   0  0  0  0  0  0  0  0  0  0  0  0
    3.4440    3.0056   -1.5571 H   0  0  0  0  0  0  0  0  0  0  0  0
    2.9533    3.8354   -3.8558 H   0  0  0  0  0  0  0  0  0  0  0  0
    0.3206    2.7980    0.9393 H   0  0  0  0  0  0  0  0  0  0  0  0
   -0.7345   -2.0398    0.7171 H   0  0  0  0  0  0  0  0  0  0  0  0
    2.6954   -2.9321    2.4374 H   0  0  0  0  0  0  0  0  0  0  0  0
    0.9741   -3.3525   -1.4777 H   0  0  0  0  0  0  0  0  0  0  0  0
   -2.0074    2.0266    1.3161 H   0  0  0  0  0  0  0  0  0  0  0  0
    2.4029   -5.3609    2.8192 H   0  0  0  0  0  0  0  0  0  0  0  0
    0.6675   -5.7501   -1.1105 H   0  0  0  0  0  0  0  0  0  0  0  0
    0.5756    0.9435   -6.6975 H   0  0  0  0  0  0  0  0  0  0  0  0
    2.2730    0.5643   -7.0735 H   0  0  0  0  0  0  0  0  0  0  0  0
   -2.6920   -2.4441    1.1132 H   0  0  0  0  0  0  0  0  0  0  0  0
   -3.4628   -1.0163    3.7357 H   0  0  0  0  0  0  0  0  0  0  0  0
   -1.8854   -1.7121    3.3988 H   0  0  0  0  0  0  0  0  0  0  0  0
   -3.2943   -2.7780    3.5472 H   0  0  0  0  0  0  0  0  0  0  0  0
   -5.2879   -1.0269    1.8505 H   0  0  0  0  0  0  0  0  0  0  0  0
   -5.0780   -2.7923    1.7475 H   0  0  0  0  0  0  0  0  0  0  0  0
   -4.8867   -1.7688    0.3091 H   0  0  0  0  0  0  0  0  0  0  0  0
    0.2839   -8.7728    0.9478 H   0  0  0  0  0  0  0  0  0  0  0  0
    0.7447   -7.9397   -0.5399 H   0  0  0  0  0  0  0  0  0  0  0  0
   -0.5960   -7.3086    0.4939 H   0  0  0  0  0  0  0  0  0  0  0  0
  1  4  1  0  0  0  0
  1  2  1  0  0  0  0
  1  3  1  0  0  0  0
  1 35  1  6  0  0  0
  2  5  2  0  0  0  0
  2  6  1  0  0  0  0
  3  8  1  0  0  0  0
  3  7  2  0  0  0  0
  4  9  1  0  0  0  0
  5 10  1  0  0  0  0
  5 11  1  0  0  0  0
  6 13  1  0  0  0  0
  6 12  2  0  0  0  0
  7 14  1  0  0  0  0
  7 36  1  0  0  0  0
  8 15  2  0  0  0  0
  8 37  1  0  0  0  0
  9 16  1  0  0  0  0
  9 10  2  0  0  0  0
 10 17  1  0  0  0  0
 11 18  2  0  0  0  0
 11 19  1  0  0  0  0
 14 21  1  0  0  0  0
 14 20  2  0  0  0  0
 15 20  1  0  0  0  0
 15 38  1  0  0  0  0
 16 22  2  0  0  0  0
 16 39  1  0  0  0  0
 17 23  2  0  0  0  0
 17 40  1  0  0  0  0
 18 24  1  0  0  0  0
 18 41  1  0  0  0  0
 19 25  2  0  0  0  0
 19 42  1  0  0  0  0
 20 26  1  0  0  0  0
 21 27  1  0  0  0  0
 22 23  1  0  0  0  0
 22 43  1  0  0  0  0
 23 28  1  0  0  0  0
 24 29  2  0  0  0  0
 24 44  1  0  0  0  0
 25 29  1  0  0  0  0
 25 45  1  0  0  0  0
 26 27  1  0  0  0  0
 27 46  1  0  0  0  0
 27 47  1  0  0  0  0
 28 30  1  0  0  0  0
 29 31  1  0  0  0  0
 30 33  1  0  0  0  0
 30 32  1  0  0  0  0
 30 48  1  0  0  0  0
 31 34  1  0  0  0  0
 32 49  1  0  0  0  0
 32 50  1  0  0  0  0
 32 51  1  0  0  0  0
 33 52  1  0  0  0  0
 33 53  1  0  0  0  0
 33 54  1  0  0  0  0
 34 55  1  0  0  0  0
 34 56  1  0  0  0  0
 34 57  1  0  0  0  0
M  CHG  1  13  -1
M  END
$$$$
