01178588C
 OpenBabel05171315273D

 55 57  0  0  0  0  0  0  0  0999 V2000
    2.9613   -1.6350   -1.1828 S   0  0  0  0  0  0  0  0  0  0  0  0
    1.6856   -2.4871   -2.0669 C   0  0  0  0  0  0  0  0  0  0  0  0
    4.4011   -2.0977   -1.9424 N   0  0  0  0  0  0  0  0  0  0  0  0
    2.9428   -2.1166    0.1824 O   0  0  0  0  0  0  0  0  0  0  0  0
    2.7594   -0.2194   -1.4260 O   0  0  0  0  0  0  0  0  0  0  0  0
    1.6745   -3.8593   -2.3166 C   0  0  0  0  0  0  0  0  0  0  0  0
    0.6273   -1.6978   -2.5595 C   0  0  0  0  0  0  0  0  0  0  0  0
    5.5087   -1.3625   -1.4289 C   0  0  0  0  0  0  0  0  0  0  0  0
    2.7006   -4.8695   -1.9665 C   0  0  0  0  0  0  0  0  0  0  0  0
    0.6489   -4.4143   -3.0378 N   0  0  0  0  0  0  0  0  0  0  0  0
   -0.3979   -2.2737   -3.2964 C   0  0  0  0  0  0  0  0  0  0  0  0
    5.8230   -0.0384   -1.7602 C   0  0  0  0  0  0  0  0  0  0  0  0
    6.1654   -2.0511   -0.4740 N   0  0  0  0  0  0  0  0  0  0  0  0
    3.2638   -5.0192   -0.6918 C   0  0  0  0  0  0  0  0  0  0  0  0
    3.1128   -5.7950   -2.9447 C   0  0  0  0  0  0  0  0  0  0  0  0
   -0.3415   -3.6308   -3.5107 C   0  0  0  0  0  0  0  0  0  0  0  0
    6.8259    0.6358   -1.1392 N   0  0  0  0  0  0  0  0  0  0  0  0
    5.1588    0.5661   -2.8067 O   0  0  0  0  0  0  0  0  0  0  0  0
    7.1596   -1.3693    0.1395 C   0  0  0  0  0  0  0  0  0  0  0  0
    4.2652   -5.9705   -0.4377 C   0  0  0  0  0  0  0  0  0  0  0  0
    4.0724   -6.7788   -2.6827 C   0  0  0  0  0  0  0  0  0  0  0  0
    7.4884   -0.0523   -0.1755 C   0  0  0  0  0  0  0  0  0  0  0  0
    5.2122    1.9852   -2.7376 C   0  0  0  0  0  0  0  0  0  0  0  0
    4.6908   -6.8548   -1.4351 C   0  0  0  0  0  0  0  0  0  0  0  0
    8.5897    0.6495    0.5550 C   0  0  0  0  0  0  0  0  0  0  0  0
    5.7371   -7.9139   -1.1391 C   0  0  0  0  0  0  0  0  0  0  0  0
    7.0007   -7.9318   -2.0330 C   0  0  0  0  0  0  0  0  0  0  0  0
    6.7497   -8.5713   -3.4243 C   0  0  0  0  0  0  0  0  0  0  0  0
    7.6502   -6.5451   -2.1230 C   0  0  0  0  0  0  0  0  0  0  0  0
    8.0246   -8.9149   -1.4276 C   0  0  0  0  0  0  0  0  0  0  0  0
    7.3801   -8.0575   -4.3920 O   0  0  0  0  0  0  0  0  0  0  0  0
    5.9559   -9.5563   -3.4422 O   0  5  0  0  0  0  0  0  0  0  0  0
    4.6153   -3.0747   -1.7278 H   0  0  0  0  0  0  0  0  0  0  0  0
    0.6014   -0.6245   -2.3811 H   0  0  0  0  0  0  0  0  0  0  0  0
   -1.2098   -1.6773   -3.6953 H   0  0  0  0  0  0  0  0  0  0  0  0
    2.9264   -4.4191    0.1473 H   0  0  0  0  0  0  0  0  0  0  0  0
    2.6657   -5.7762   -3.9382 H   0  0  0  0  0  0  0  0  0  0  0  0
   -1.1032   -4.1464   -4.0881 H   0  0  0  0  0  0  0  0  0  0  0  0
    7.6901   -1.9190    0.9104 H   0  0  0  0  0  0  0  0  0  0  0  0
    4.6968   -6.0270    0.5592 H   0  0  0  0  0  0  0  0  0  0  0  0
    4.3228   -7.4901   -3.4689 H   0  0  0  0  0  0  0  0  0  0  0  0
    4.5977    2.3825   -3.5514 H   0  0  0  0  0  0  0  0  0  0  0  0
    6.2322    2.3571   -2.8838 H   0  0  0  0  0  0  0  0  0  0  0  0
    4.7938    2.3521   -1.7934 H   0  0  0  0  0  0  0  0  0  0  0  0
    8.7447    1.6557    0.1523 H   0  0  0  0  0  0  0  0  0  0  0  0
    9.5272    0.0944    0.4536 H   0  0  0  0  0  0  0  0  0  0  0  0
    8.3395    0.7419    1.6165 H   0  0  0  0  0  0  0  0  0  0  0  0
    5.2304   -8.8879   -1.1494 H   0  0  0  0  0  0  0  0  0  0  0  0
    6.0655   -7.7790   -0.0984 H   0  0  0  0  0  0  0  0  0  0  0  0
    7.8477   -6.1364   -1.1257 H   0  0  0  0  0  0  0  0  0  0  0  0
    7.0145   -5.8346   -2.6619 H   0  0  0  0  0  0  0  0  0  0  0  0
    8.6086   -6.5815   -2.6546 H   0  0  0  0  0  0  0  0  0  0  0  0
    8.3600   -8.5747   -0.4412 H   0  0  0  0  0  0  0  0  0  0  0  0
    8.9144   -9.0140   -2.0616 H   0  0  0  0  0  0  0  0  0  0  0  0
    7.5996   -9.9182   -1.3017 H   0  0  0  0  0  0  0  0  0  0  0  0
  1  5  2  0  0  0  0
  1  4  2  0  0  0  0
  1  3  1  0  0  0  0
  1  2  1  0  0  0  0
  2  6  2  0  0  0  0
  2  7  1  0  0  0  0
  3  8  1  0  0  0  0
  3 33  1  0  0  0  0
  6 10  1  0  0  0  0
  6  9  1  0  0  0  0
  7 11  2  0  0  0  0
  7 34  1  0  0  0  0
  8 12  1  0  0  0  0
  8 13  2  0  0  0  0
  9 14  2  0  0  0  0
  9 15  1  0  0  0  0
 10 16  2  0  0  0  0
 11 16  1  0  0  0  0
 11 35  1  0  0  0  0
 12 17  2  0  0  0  0
 12 18  1  0  0  0  0
 13 19  1  0  0  0  0
 14 20  1  0  0  0  0
 14 36  1  0  0  0  0
 15 21  2  0  0  0  0
 15 37  1  0  0  0  0
 16 38  1  0  0  0  0
 17 22  1  0  0  0  0
 18 23  1  0  0  0  0
 19 22  2  0  0  0  0
 19 39  1  0  0  0  0
 20 24  2  0  0  0  0
 20 40  1  0  0  0  0
 21 24  1  0  0  0  0
 21 41  1  0  0  0  0
 22 25  1  0  0  0  0
 23 42  1  0  0  0  0
 23 43  1  0  0  0  0
 23 44  1  0  0  0  0
 24 26  1  0  0  0  0
 25 45  1  0  0  0  0
 25 46  1  0  0  0  0
 25 47  1  0  0  0  0
 26 27  1  0  0  0  0
 26 48  1  0  0  0  0
 26 49  1  0  0  0  0
 27 30  1  0  0  0  0
 27 29  1  0  0  0  0
 27 28  1  0  0  0  0
 28 32  1  0  0  0  0
 28 31  2  0  0  0  0
 29 50  1  0  0  0  0
 29 51  1  0  0  0  0
 29 52  1  0  0  0  0
 30 53  1  0  0  0  0
 30 54  1  0  0  0  0
 30 55  1  0  0  0  0
M  CHG  1  32  -1
M  END
$$$$
