
 OpenBabel05171315033D

 67 70  0  0  0  0  0  0  0  0999 V2000
    4.2576   -4.0755   -2.1797 C   0  0  0  0  0  0  0  0  0  0  0  0
    3.4119   -3.8754   -1.1130 C   0  0  0  0  0  0  0  0  0  0  0  0
    3.0212   -2.5734   -0.9024 C   0  0  0  0  0  0  0  0  0  0  0  0
    3.4377   -1.5351   -1.6626 N   0  0  0  0  0  0  0  0  0  0  0  0
    4.7044   -3.0776   -2.9725 N   0  0  0  0  0  0  0  0  0  0  0  0
    5.9397   -0.0307   -9.3938 C   0  0  0  0  0  0  0  0  0  0  0  0
    5.3007    1.1114   -9.8419 C   0  0  0  0  0  0  0  0  0  0  0  0
    4.6797    1.9818   -8.9376 C   0  0  0  0  0  0  0  0  0  0  0  0
    4.7342    1.7683   -7.5588 C   0  0  0  0  0  0  0  0  0  0  0  0
    5.0835    0.4524   -7.1988 C   0  0  0  0  0  0  0  0  0  0  0  0
    5.7127   -0.4224   -8.0877 C   0  0  0  0  0  0  0  0  0  0  0  0
    6.0204    4.0513  -12.1649 C   0  0  0  0  0  0  0  0  0  0  0  0
    5.2705    4.7767  -11.2231 C   0  0  0  0  0  0  0  0  0  0  0  0
    5.7490    4.9342   -9.9209 C   0  0  0  0  0  0  0  0  0  0  0  0
    7.0023    4.4276   -9.5803 C   0  0  0  0  0  0  0  0  0  0  0  0
    7.7434    3.7037  -10.5292 C   0  0  0  0  0  0  0  0  0  0  0  0
    8.0931    2.6925  -12.8879 C   0  0  0  0  0  0  0  0  0  0  0  0
    7.2633    3.4726  -11.8350 C   0  0  0  0  0  0  0  0  0  0  0  0
    9.2714    1.9044  -12.2612 C   0  0  0  0  0  0  0  0  0  0  0  0
    7.2538    1.7104  -13.7635 C   0  0  0  0  0  0  0  0  0  0  0  0
    8.7016    3.7295  -13.8575 C   0  0  0  0  0  0  0  0  0  0  0  0
    6.8349    0.5449  -13.0707 O   0  0  0  0  0  0  0  0  0  0  0  0
    4.8020    5.8423   -8.7045 S   0  0  0  0  0  0  0  0  0  0  0  0
    3.9646    6.7649   -9.4517 O   0  0  0  0  0  0  0  0  0  0  0  0
    5.7226    6.3057   -7.6917 O   0  0  0  0  0  0  0  0  0  0  0  0
    3.7224    4.6756   -8.0687 N   0  0  0  0  0  0  0  0  0  0  0  0
    4.5128    2.8547   -6.5347 C   0  0  0  0  0  0  0  0  0  0  0  0
    4.8501    2.7015   -5.1759 C   0  0  0  0  0  0  0  0  0  0  0  0
    4.6122    3.5986   -4.1968 N   0  0  0  0  0  0  0  0  0  0  0  0
    4.0535    4.7412   -4.5844 C   0  0  0  0  0  0  0  0  0  0  0  0
    3.7346    5.0626   -5.8384 N   0  0  0  0  0  0  0  0  0  0  0  0
    4.0296    4.1463   -6.7792 C   0  0  0  0  0  0  0  0  0  0  0  0
    6.8525   -0.8130  -10.2708 C   0  0  0  0  0  0  0  0  0  0  0  0
    5.5961    1.5994   -4.8187 O   0  0  0  0  0  0  0  0  0  0  0  0
    5.8399    1.3385   -3.4371 C   0  0  0  0  0  0  0  0  0  0  0  0
    4.7506    0.4524   -2.8274 C   0  0  0  0  0  0  0  0  0  0  0  0
    4.8009   -0.8377   -3.4515 O   0  0  0  0  0  0  0  0  0  0  0  0
    4.2823   -1.8409   -2.6641 C   0  0  0  0  0  0  0  0  0  0  0  0
    2.8407   -5.2812   -0.0081 Br  0  0  0  0  0  0  0  0  0  0  0  0
    4.6227   -5.0650   -2.4381 H   0  0  0  0  0  0  0  0  0  0  0  0
    2.3510   -2.3060   -0.0917 H   0  0  0  0  0  0  0  0  0  0  0  0
    5.3469    1.4000  -10.8913 H   0  0  0  0  0  0  0  0  0  0  0  0
    4.2163    2.8555   -9.3659 H   0  0  0  0  0  0  0  0  0  0  0  0
    4.9461    0.0732   -6.1929 H   0  0  0  0  0  0  0  0  0  0  0  0
    6.0864   -1.3756   -7.7153 H   0  0  0  0  0  0  0  0  0  0  0  0
    5.6141    3.9584  -13.1702 H   0  0  0  0  0  0  0  0  0  0  0  0
    4.3148    5.2068  -11.5168 H   0  0  0  0  0  0  0  0  0  0  0  0
    7.4109    4.5757   -8.5839 H   0  0  0  0  0  0  0  0  0  0  0  0
    8.7101    3.3234  -10.2076 H   0  0  0  0  0  0  0  0  0  0  0  0
   10.0535    2.5768  -11.8903 H   0  0  0  0  0  0  0  0  0  0  0  0
    9.7456    1.2432  -12.9969 H   0  0  0  0  0  0  0  0  0  0  0  0
    8.9535    1.2812  -11.4205 H   0  0  0  0  0  0  0  0  0  0  0  0
    7.8663    1.3518  -14.6006 H   0  0  0  0  0  0  0  0  0  0  0  0
    6.3746    2.1845  -14.2115 H   0  0  0  0  0  0  0  0  0  0  0  0
    7.9228    4.2427  -14.4349 H   0  0  0  0  0  0  0  0  0  0  0  0
    9.3743    3.2449  -14.5752 H   0  0  0  0  0  0  0  0  0  0  0  0
    9.2785    4.4916  -13.3229 H   0  0  0  0  0  0  0  0  0  0  0  0
    5.8713    0.5893  -12.9630 H   0  0  0  0  0  0  0  0  0  0  0  0
    2.8066    5.1244   -8.0561 H   0  0  0  0  0  0  0  0  0  0  0  0
    3.8542    5.4806   -3.8143 H   0  0  0  0  0  0  0  0  0  0  0  0
    7.4121   -0.1386  -10.9114 H   0  0  0  0  0  0  0  0  0  0  0  0
    6.3095   -1.5403  -10.8783 H   0  0  0  0  0  0  0  0  0  0  0  0
    7.6178   -1.3350   -9.6704 H   0  0  0  0  0  0  0  0  0  0  0  0
    6.7869    0.7874   -3.4089 H   0  0  0  0  0  0  0  0  0  0  0  0
    5.9933    2.2524   -2.8556 H   0  0  0  0  0  0  0  0  0  0  0  0
    4.9584    0.3772   -1.7529 H   0  0  0  0  0  0  0  0  0  0  0  0
    3.7580    0.8842   -2.9919 H   0  0  0  0  0  0  0  0  0  0  0  0
  1  2  2  0  0  0  0
  1 40  1  0  0  0  0
  2  3  1  0  0  0  0
  2 39  1  0  0  0  0
  3  4  2  0  0  0  0
  3 41  1  0  0  0  0
  4 38  1  0  0  0  0
  5  1  1  0  0  0  0
  6  7  2  0  0  0  0
  6 33  1  0  0  0  0
  7  8  1  0  0  0  0
  7 42  1  0  0  0  0
  8  9  2  0  0  0  0
  8 43  1  0  0  0  0
  9 10  1  0  0  0  0
 10 11  2  0  0  0  0
 10 44  1  0  0  0  0
 11  6  1  0  0  0  0
 11 45  1  0  0  0  0
 12 13  2  0  0  0  0
 12 46  1  0  0  0  0
 13 14  1  0  0  0  0
 13 47  1  0  0  0  0
 14 15  2  0  0  0  0
 15 16  1  0  0  0  0
 15 48  1  0  0  0  0
 16 18  2  0  0  0  0
 16 49  1  0  0  0  0
 17 18  1  0  0  0  0
 17 21  1  0  0  0  0
 17 20  1  0  0  0  0
 17 19  1  0  0  0  0
 18 12  1  0  0  0  0
 19 50  1  0  0  0  0
 19 51  1  0  0  0  0
 19 52  1  0  0  0  0
 20 22  1  0  0  0  0
 20 53  1  0  0  0  0
 20 54  1  0  0  0  0
 21 55  1  0  0  0  0
 21 56  1  0  0  0  0
 21 57  1  0  0  0  0
 22 58  1  0  0  0  0
 23 26  1  0  0  0  0
 23 25  2  0  0  0  0
 23 24  2  0  0  0  0
 23 14  1  0  0  0  0
 26 32  1  0  0  0  0
 26 59  1  0  0  0  0
 27 28  2  0  0  0  0
 27  9  1  0  0  0  0
 28 29  1  0  0  0  0
 29 30  2  0  0  0  0
 30 31  1  0  0  0  0
 30 60  1  0  0  0  0
 31 32  2  0  0  0  0
 32 27  1  0  0  0  0
 33 61  1  0  0  0  0
 33 62  1  0  0  0  0
 33 63  1  0  0  0  0
 34 35  1  0  0  0  0
 34 28  1  0  0  0  0
 35 36  1  0  0  0  0
 35 64  1  0  0  0  0
 35 65  1  0  0  0  0
 36 37  1  0  0  0  0
 36 66  1  0  0  0  0
 36 67  1  0  0  0  0
 37 38  1  0  0  0  0
 38  5  2  0  0  0  0
M  END
$$$$
