RMSD_TEST/ORIGINAL_PDBS/ligand1TMN.pdb
 OpenBabel06251311083D

 69 71  0  0  1  0  0  0  0  0999 V2000
   51.6573   18.1803   -5.7021 C   0  0  1  0  0  0  0  0  0  0  0  0
   50.3752   18.2802   -6.5482 C   0  0  0  0  0  0  0  0  0  0  0  0
   49.8974   16.8534   -6.8468 C   0  0  0  0  0  0  0  0  0  0  0  0
   48.6035   16.6775   -7.6703 C   0  0  0  0  0  0  0  0  0  0  0  0
   48.6413   16.7072   -9.0589 C   0  0  0  0  0  0  0  0  0  0  0  0
   47.4341   16.3657   -7.0220 C   0  0  0  0  0  0  0  0  0  0  0  0
   47.4825   16.4660   -9.8219 C   0  0  0  0  0  0  0  0  0  0  0  0
   46.2626   16.1345   -7.7650 C   0  0  0  0  0  0  0  0  0  0  0  0
   46.2748   16.1929   -9.1730 C   0  0  0  0  0  0  0  0  0  0  0  0
   52.5832   19.1967   -6.3285 C   0  0  0  0  0  0  0  0  0  0  0  0
   53.4336   18.8533   -7.1764 O   0  0  0  0  0  0  0  0  0  0  0  0
   52.4179   20.3950   -6.0851 O   0  0  0  0  0  0  0  0  0  0  0  0
   51.4940   18.2369   -4.1978 N   0  0  0  0  0  0  0  0  0  0  0  0
   52.7561   18.0349   -3.4440 C   0  0  2  0  0  0  0  0  0  0  0  0
   53.5929   16.8061   -3.8274 C   0  0  0  0  0  0  0  0  0  0  0  0
   54.8552   16.8558   -3.8656 O   0  0  0  0  0  0  0  0  0  0  0  0
   52.4467   17.9354   -1.9491 C   0  0  0  0  0  0  0  0  0  0  0  0
   53.7583   18.0027   -1.1896 C   0  0  0  0  0  0  0  0  0  0  0  0
   54.4873   19.3092   -1.4945 C   0  0  0  0  0  0  0  0  0  0  0  0
   53.4326   17.8583    0.2908 C   0  0  0  0  0  0  0  0  0  0  0  0
   52.8507   15.7282   -4.0527 N   0  0  0  0  0  0  0  0  0  0  0  0
   53.4189   14.4212   -4.4223 C   0  0  2  0  0  0  0  0  0  0  0  0
   52.5554   13.5757   -5.3521 C   0  0  0  0  0  0  0  0  0  0  0  0
   51.5167   14.1220   -5.8405 O   0  0  0  0  0  0  0  0  0  0  0  0
   53.9175   13.6205   -3.1834 C   0  0  0  0  0  0  0  0  0  0  0  0
   52.7117   13.1152   -2.3952 C   0  0  1  0  0  0  0  0  0  0  0  0
   51.5979   13.7662   -2.0653 C   0  0  0  0  0  0  0  0  0  0  0  0
   52.5194   11.8080   -1.9610 C   0  0  0  0  0  0  0  0  0  0  0  0
   50.6188   12.8376   -1.6576 N   0  0  0  0  0  0  0  0  0  0  0  0
   51.1460   11.6778   -1.6761 C   0  0  0  0  0  0  0  0  0  0  0  0
   53.4171   10.7499   -1.8215 C   0  0  0  0  0  0  0  0  0  0  0  0
   50.5669   10.4632   -1.3455 C   0  0  0  0  0  0  0  0  0  0  0  0
   52.8620    9.5265   -1.4050 C   0  0  0  0  0  0  0  0  0  0  0  0
   51.4661    9.3819   -1.2044 C   0  0  0  0  0  0  0  0  0  0  0  0
   53.0588   12.5373   -5.9129 O   0  0  0  0  0  0  0  0  0  0  0  0
   52.0741   17.1955   -5.7390 H   0  0  0  0  0  0  0  0  0  0  0  0
   50.5826   18.7935   -7.4639 H   0  0  0  0  0  0  0  0  0  0  0  0
   49.6203   18.8240   -6.0198 H   0  0  0  0  0  0  0  0  0  0  0  0
   49.7442   16.3663   -5.9064 H   0  0  0  0  0  0  0  0  0  0  0  0
   50.6656   16.4394   -7.4660 H   0  0  0  0  0  0  0  0  0  0  0  0
   49.5324   16.9091   -9.5386 H   0  0  0  0  0  0  0  0  0  0  0  0
   47.4149   16.3011   -5.9922 H   0  0  0  0  0  0  0  0  0  0  0  0
   47.5246   16.4907  -10.8528 H   0  0  0  0  0  0  0  0  0  0  0  0
   45.3818   15.9191   -7.2723 H   0  0  0  0  0  0  0  0  0  0  0  0
   45.4098   16.0371   -9.7140 H   0  0  0  0  0  0  0  0  0  0  0  0
   50.8346   17.5101   -3.9195 H   0  0  0  0  0  0  0  0  0  0  0  0
   51.1635   19.1753   -3.9725 H   0  0  0  0  0  0  0  0  0  0  0  0
   53.3497   18.8874   -3.7006 H   0  0  0  0  0  0  0  0  0  0  0  0
   51.9549   17.0080   -1.7417 H   0  0  0  0  0  0  0  0  0  0  0  0
   51.8042   18.7370   -1.6499 H   0  0  0  0  0  0  0  0  0  0  0  0
   54.4185   17.2155   -1.4884 H   0  0  0  0  0  0  0  0  0  0  0  0
   53.8693   20.1364   -1.2138 H   0  0  0  0  0  0  0  0  0  0  0  0
   54.7008   19.3627   -2.5417 H   0  0  0  0  0  0  0  0  0  0  0  0
   55.4028   19.3443   -0.9417 H   0  0  0  0  0  0  0  0  0  0  0  0
   52.7723   18.6456    0.5892 H   0  0  0  0  0  0  0  0  0  0  0  0
   54.3358   17.9146    0.8618 H   0  0  0  0  0  0  0  0  0  0  0  0
   52.9609   16.9132    0.4616 H   0  0  0  0  0  0  0  0  0  0  0  0
   51.8730   15.8068   -3.9684 H   0  0  0  0  0  0  0  0  0  0  0  0
   54.2756   14.6664   -5.0146 H   0  0  0  0  0  0  0  0  0  0  0  0
   54.5111   14.2570   -2.5609 H   0  0  0  0  0  0  0  0  0  0  0  0
   54.5103   12.7903   -3.5062 H   0  0  0  0  0  0  0  0  0  0  0  0
   53.5918   13.6870   -2.6034 H   0  0  0  0  0  0  0  0  0  0  0  0
   51.8041   14.4436   -1.2631 H   0  0  0  0  0  0  0  0  0  0  0  0
   51.2403   14.3160   -2.9107 H   0  0  0  0  0  0  0  0  0  0  0  0
   49.6913   13.0481   -1.4034 H   0  0  0  0  0  0  0  0  0  0  0  0
   54.4257   10.8578   -2.0119 H   0  0  0  0  0  0  0  0  0  0  0  0
   49.5493   10.3555   -1.2116 H   0  0  0  0  0  0  0  0  0  0  0  0
   53.4829    8.7184   -1.2424 H   0  0  0  0  0  0  0  0  0  0  0  0
   51.0934    8.4547   -0.9463 H   0  0  0  0  0  0  0  0  0  0  0  0
  1 13  1  0  0  0  0
  1 10  1  0  0  0  0
  1  2  1  0  0  0  0
  1 36  1  6  0  0  0
  2  3  1  0  0  0  0
  2 37  1  0  0  0  0
  2 38  1  0  0  0  0
  3  4  1  0  0  0  0
  3 39  1  0  0  0  0
  3 40  1  0  0  0  0
  4  6  2  0  0  0  0
  4  5  1  0  0  0  0
  5  7  2  0  0  0  0
  5 41  1  0  0  0  0
  6  8  1  0  0  0  0
  6 42  1  0  0  0  0
  7  9  1  0  0  0  0
  7 43  1  0  0  0  0
  8  9  2  0  0  0  0
  8 44  1  0  0  0  0
  9 45  1  0  0  0  0
 10 12  2  0  0  0  0
 10 11  1  0  0  0  0
 13 14  1  0  0  0  0
 13 46  1  0  0  0  0
 13 47  1  0  0  0  0
 14 15  1  0  0  0  0
 14 17  1  0  0  0  0
 14 48  1  6  0  0  0
 15 21  1  0  0  0  0
 15 16  2  0  0  0  0
 17 18  1  0  0  0  0
 17 49  1  0  0  0  0
 17 50  1  0  0  0  0
 18 19  1  0  0  0  0
 18 20  1  0  0  0  0
 18 51  1  0  0  0  0
 19 52  1  0  0  0  0
 19 53  1  0  0  0  0
 19 54  1  0  0  0  0
 20 55  1  0  0  0  0
 20 56  1  0  0  0  0
 20 57  1  0  0  0  0
 21 22  1  0  0  0  0
 21 58  1  0  0  0  0
 22 25  1  0  0  0  0
 22 23  1  0  0  0  0
 22 59  1  6  0  0  0
 23 35  2  0  0  0  0
 23 24  1  0  0  0  0
 25 26  1  0  0  0  0
 25 60  1  0  0  0  0
 25 61  1  0  0  0  0
 26 27  1  0  0  0  0
 26 28  1  0  0  0  0
 26 62  1  1  0  0  0
 27 29  1  0  0  0  0
 27 63  1  0  0  0  0
 27 64  1  0  0  0  0
 28 30  2  0  0  0  0
 28 31  1  0  0  0  0
 29 30  1  0  0  0  0
 29 65  1  0  0  0  0
 30 32  1  0  0  0  0
 31 33  2  0  0  0  0
 31 66  1  0  0  0  0
 32 34  2  0  0  0  0
 32 67  1  0  0  0  0
 33 34  1  0  0  0  0
 33 68  1  0  0  0  0
 34 69  1  0  0  0  0
M  END
$$$$
