RMSD_TEST/ORIGINAL_PDBS/ligand1THL.pdb
 OpenBabel06251312063D

 65 68  0  0  1  0  0  0  0  0999 V2000
   51.4734   17.0055   -6.7368 C   0  0  1  0  0  0  0  0  0  0  0  0
   50.2004   16.6705   -7.5110 C   0  0  0  0  0  0  0  0  0  0  0  0
   50.1958   15.2738   -7.9525 C   0  0  0  0  0  0  0  0  0  0  0  0
   48.9399   14.8887   -8.6684 C   0  0  0  0  0  0  0  0  0  0  0  0
   48.9913   14.8039  -10.0545 C   0  0  0  0  0  0  0  0  0  0  0  0
   47.8074   14.4146   -7.9980 C   0  0  0  0  0  0  0  0  0  0  0  0
   47.9009   14.3727  -10.7913 C   0  0  0  0  0  0  0  0  0  0  0  0
   46.7193   13.9229   -8.7165 C   0  0  0  0  0  0  0  0  0  0  0  0
   46.7877   13.8370  -10.0973 C   0  0  0  0  0  0  0  0  0  0  0  0
   52.1121   18.0915   -7.5318 C   0  0  0  0  0  0  0  0  0  0  0  0
   51.4681   19.1430   -7.6918 O   0  0  0  0  0  0  0  0  0  0  0  0
   53.2271   17.9895   -8.0843 O   0  0  0  0  0  0  0  0  0  0  0  0
   51.0455   17.4829   -5.3335 C   0  0  0  0  0  0  0  0  0  0  0  0
   52.2774   17.7290   -4.4116 C   0  0  0  0  0  0  0  0  0  0  0  0
   52.8541   19.1538   -4.5659 C   0  0  0  0  0  0  0  0  0  0  0  0
   51.6983   17.7881   -2.9811 C   0  0  0  0  0  0  0  0  0  0  0  0
   53.3504   19.5623   -3.1755 C   0  0  0  0  0  0  0  0  0  0  0  0
   52.3671   18.9016   -2.1812 C   0  0  0  0  0  0  0  0  0  0  0  0
   53.3462   16.6299   -4.4919 C   0  0  0  0  0  0  0  0  0  0  0  0
   54.5653   16.8695   -4.5612 O   0  0  0  0  0  0  0  0  0  0  0  0
   52.8938   15.3954   -4.4382 N   0  0  0  0  0  0  0  0  0  0  0  0
   53.7816   14.2502   -4.5107 C   0  0  2  0  0  0  0  0  0  0  0  0
   53.2804   13.1533   -5.4212 C   0  0  0  0  0  0  0  0  0  0  0  0
   52.0864   13.2126   -5.8321 O   0  0  0  0  0  0  0  0  0  0  0  0
   54.1968   13.7588   -3.1081 C   0  0  0  0  0  0  0  0  0  0  0  0
   53.0424   13.2171   -2.3475 C   0  0  0  0  0  0  0  0  0  0  0  0
   52.0603   13.9390   -1.7567 C   0  0  0  0  0  0  0  0  0  0  0  0
   52.6255   11.8664   -2.3459 C   0  0  0  0  0  0  0  0  0  0  0  0
   51.1188   13.0860   -1.2450 N   0  0  0  0  0  0  0  0  0  0  0  0
   51.4189   11.8145   -1.6337 C   0  0  0  0  0  0  0  0  0  0  0  0
   53.1008   10.7090   -2.9677 C   0  0  0  0  0  0  0  0  0  0  0  0
   50.7415   10.6017   -1.4529 C   0  0  0  0  0  0  0  0  0  0  0  0
   52.4212    9.5235   -2.8140 C   0  0  0  0  0  0  0  0  0  0  0  0
   51.2489    9.4692   -2.0577 C   0  0  0  0  0  0  0  0  0  0  0  0
   54.0949   12.2239   -5.7186 O   0  0  0  0  0  0  0  0  0  0  0  0
   52.1531   16.1894   -6.6063 H   0  0  0  0  0  0  0  0  0  0  0  0
   50.1368   17.3069   -8.3688 H   0  0  0  0  0  0  0  0  0  0  0  0
   49.3624   16.8219   -6.8632 H   0  0  0  0  0  0  0  0  0  0  0  0
   50.3047   14.6448   -7.0937 H   0  0  0  0  0  0  0  0  0  0  0  0
   51.0055   15.1543   -8.6418 H   0  0  0  0  0  0  0  0  0  0  0  0
   49.8602   15.0677  -10.5450 H   0  0  0  0  0  0  0  0  0  0  0  0
   47.7776   14.4289   -6.9666 H   0  0  0  0  0  0  0  0  0  0  0  0
   47.8991   14.4398  -11.8211 H   0  0  0  0  0  0  0  0  0  0  0  0
   45.8649   13.6235   -8.2211 H   0  0  0  0  0  0  0  0  0  0  0  0
   46.0252   13.3812  -10.6224 H   0  0  0  0  0  0  0  0  0  0  0  0
   50.4217   16.7365   -4.8878 H   0  0  0  0  0  0  0  0  0  0  0  0
   50.5175   18.4073   -5.4407 H   0  0  0  0  0  0  0  0  0  0  0  0
   52.0942   19.8279   -4.9022 H   0  0  0  0  0  0  0  0  0  0  0  0
   53.6442   19.1804   -5.2870 H   0  0  0  0  0  0  0  0  0  0  0  0
   51.8696   16.8516   -2.4926 H   0  0  0  0  0  0  0  0  0  0  0  0
   50.6484   17.9860   -3.0400 H   0  0  0  0  0  0  0  0  0  0  0  0
   53.3325   20.6269   -3.0690 H   0  0  0  0  0  0  0  0  0  0  0  0
   54.3599   19.2512   -3.0047 H   0  0  0  0  0  0  0  0  0  0  0  0
   52.8935   18.4991   -1.3411 H   0  0  0  0  0  0  0  0  0  0  0  0
   51.6582   19.6001   -1.7882 H   0  0  0  0  0  0  0  0  0  0  0  0
   51.9253   15.2446   -4.3463 H   0  0  0  0  0  0  0  0  0  0  0  0
   54.6789   14.5894   -4.9847 H   0  0  0  0  0  0  0  0  0  0  0  0
   54.6153   14.5795   -2.5638 H   0  0  0  0  0  0  0  0  0  0  0  0
   54.9120   12.9724   -3.2304 H   0  0  0  0  0  0  0  0  0  0  0  0
   52.0268   14.9689   -1.7009 H   0  0  0  0  0  0  0  0  0  0  0  0
   50.3508   13.3484   -0.6877 H   0  0  0  0  0  0  0  0  0  0  0  0
   53.9589   10.7437   -3.5401 H   0  0  0  0  0  0  0  0  0  0  0  0
   49.8835   10.5559   -0.8811 H   0  0  0  0  0  0  0  0  0  0  0  0
   52.7809    8.6661   -3.2619 H   0  0  0  0  0  0  0  0  0  0  0  0
   50.7548    8.5698   -1.9492 H   0  0  0  0  0  0  0  0  0  0  0  0
  1  2  1  0  0  0  0
  1 10  1  0  0  0  0
  1 13  1  0  0  0  0
  1 36  1  1  0  0  0
  2  3  1  0  0  0  0
  2 37  1  0  0  0  0
  2 38  1  0  0  0  0
  3  4  1  0  0  0  0
  3 39  1  0  0  0  0
  3 40  1  0  0  0  0
  4  5  2  0  0  0  0
  4  6  1  0  0  0  0
  5  7  1  0  0  0  0
  5 41  1  0  0  0  0
  6  8  2  0  0  0  0
  6 42  1  0  0  0  0
  7  9  2  0  0  0  0
  7 43  1  0  0  0  0
  8  9  1  0  0  0  0
  8 44  1  0  0  0  0
  9 45  1  0  0  0  0
 10 11  2  0  0  0  0
 10 12  1  0  0  0  0
 13 14  1  0  0  0  0
 13 46  1  0  0  0  0
 13 47  1  0  0  0  0
 14 15  1  0  0  0  0
 14 16  1  0  0  0  0
 14 19  1  0  0  0  0
 15 17  1  0  0  0  0
 15 48  1  0  0  0  0
 15 49  1  0  0  0  0
 16 18  1  0  0  0  0
 16 50  1  0  0  0  0
 16 51  1  0  0  0  0
 17 18  1  0  0  0  0
 17 52  1  0  0  0  0
 17 53  1  0  0  0  0
 18 54  1  0  0  0  0
 18 55  1  0  0  0  0
 19 20  2  0  0  0  0
 19 21  1  0  0  0  0
 21 22  1  0  0  0  0
 21 56  1  0  0  0  0
 22 23  1  0  0  0  0
 22 25  1  0  0  0  0
 22 57  1  6  0  0  0
 23 24  2  0  0  0  0
 23 35  1  0  0  0  0
 25 26  1  0  0  0  0
 25 58  1  0  0  0  0
 25 59  1  0  0  0  0
 26 27  2  0  0  0  0
 26 28  1  0  0  0  0
 27 29  1  0  0  0  0
 27 60  1  0  0  0  0
 28 30  2  0  0  0  0
 28 31  1  0  0  0  0
 29 30  1  0  0  0  0
 29 61  1  0  0  0  0
 30 32  1  0  0  0  0
 31 33  2  0  0  0  0
 31 62  1  0  0  0  0
 32 34  2  0  0  0  0
 32 63  1  0  0  0  0
 33 34  1  0  0  0  0
 33 64  1  0  0  0  0
 34 65  1  0  0  0  0
M  END
$$$$
