RMSD_TEST/ORIGINAL_PDBS/ligand4TMN.pdb
 OpenBabel06251311193D

 69 70  0  0  1  0  0  0  0  0999 V2000
   50.2257   13.9156   -5.7429 C   0  0  0  0  0  0  0  0  0  0  0  0
   49.2415   13.2809   -6.2551 O   0  0  0  0  0  0  0  0  0  0  0  0
   51.2177   13.3845   -4.9460 O   0  0  0  0  0  0  0  0  0  0  0  0
   51.4875   11.9731   -4.9485 C   0  0  0  0  0  0  0  0  0  0  0  0
   51.8570   11.7349   -3.5276 C   0  0  0  0  0  0  0  0  0  0  0  0
   52.3760   12.6334   -2.5892 C   0  0  0  0  0  0  0  0  0  0  0  0
   52.6420   12.2935   -1.2366 C   0  0  0  0  0  0  0  0  0  0  0  0
   52.3803   11.0910   -0.7353 C   0  0  0  0  0  0  0  0  0  0  0  0
   51.9037   10.2893   -1.6933 C   0  0  0  0  0  0  0  0  0  0  0  0
   51.5995   10.5078   -3.0525 C   0  0  0  0  0  0  0  0  0  0  0  0
   50.5106   15.2137   -5.9281 N   0  0  0  0  0  0  0  0  0  0  0  0
   49.7203   16.0573   -6.8678 C   0  0  2  0  0  0  0  0  0  0  0  0
   50.3555   15.7825   -8.3679 P   0  0  1  0  0  0  0  0  0  0  0  0
   51.8686   16.2162   -8.4505 O   0  0  0  0  0  0  0  0  0  0  0  0
   50.1284   14.2928   -8.8613 O   0  0  0  0  0  0  0  0  0  0  0  0
   50.0059   17.4554   -6.4321 C   0  0  0  0  0  0  0  0  0  0  0  0
   49.3657   17.6067   -5.0675 C   0  0  0  0  0  0  0  0  0  0  0  0
   47.9804   17.8129   -5.0440 C   0  0  0  0  0  0  0  0  0  0  0  0
   50.0985   17.4790   -3.9142 C   0  0  0  0  0  0  0  0  0  0  0  0
   47.3031   17.9420   -3.8247 C   0  0  0  0  0  0  0  0  0  0  0  0
   49.4417   17.6157   -2.6825 C   0  0  0  0  0  0  0  0  0  0  0  0
   48.0368   17.8523   -2.6482 C   0  0  0  0  0  0  0  0  0  0  0  0
   49.2221   16.8686   -9.4358 N   0  0  0  0  0  0  0  0  0  0  0  0
   49.7814   17.2646  -10.7359 C   0  0  2  0  0  0  0  0  0  0  0  0
   50.6655   18.5221  -10.7155 C   0  0  0  0  0  0  0  0  0  0  0  0
   51.6745   18.6123  -11.4247 O   0  0  0  0  0  0  0  0  0  0  0  0
   48.6980   17.5224  -11.7906 C   0  0  0  0  0  0  0  0  0  0  0  0
   49.2538   17.8562  -13.1555 C   0  0  0  0  0  0  0  0  0  0  0  0
   49.8563   16.6000  -13.8108 C   0  0  0  0  0  0  0  0  0  0  0  0
   48.0021   18.3787  -13.8275 C   0  0  0  0  0  0  0  0  0  0  0  0
   50.2371   19.5127   -9.9582 N   0  0  0  0  0  0  0  0  0  0  0  0
   50.8893   20.8314   -9.8277 C   0  0  2  0  0  0  0  0  0  0  0  0
   51.1027   21.1927   -8.3363 C   0  0  0  0  0  0  0  0  0  0  0  0
   50.5001   20.5675   -7.4393 O   0  0  0  0  0  0  0  0  0  0  0  0
   50.0152   21.8673  -10.5106 C   0  0  0  0  0  0  0  0  0  0  0  0
   51.9479   22.0467   -7.8825 O   0  0  0  0  0  0  0  0  0  0  0  0
   50.6206   11.4106   -5.2257 H   0  0  0  0  0  0  0  0  0  0  0  0
   52.2398   11.6757   -5.6489 H   0  0  0  0  0  0  0  0  0  0  0  0
   52.5768   13.5976   -2.8975 H   0  0  0  0  0  0  0  0  0  0  0  0
   53.0553   13.0088   -0.6181 H   0  0  0  0  0  0  0  0  0  0  0  0
   52.5238   10.8163    0.2491 H   0  0  0  0  0  0  0  0  0  0  0  0
   51.7236    9.3238   -1.3766 H   0  0  0  0  0  0  0  0  0  0  0  0
   51.2011    9.7652   -3.6481 H   0  0  0  0  0  0  0  0  0  0  0  0
   51.2587   15.6177   -5.4318 H   0  0  0  0  0  0  0  0  0  0  0  0
   48.6682   15.8629   -6.8817 H   0  0  0  0  0  0  0  0  0  0  0  0
   50.6880   13.6921   -8.3446 H   0  0  0  0  0  0  0  0  0  0  0  0
   49.5804   18.1540   -7.1219 H   0  0  0  0  0  0  0  0  0  0  0  0
   51.0579   17.6471   -6.3949 H   0  0  0  0  0  0  0  0  0  0  0  0
   47.4554   17.8700   -5.9307 H   0  0  0  0  0  0  0  0  0  0  0  0
   51.1117   17.2863   -3.9524 H   0  0  0  0  0  0  0  0  0  0  0  0
   46.2836   18.1000   -3.8008 H   0  0  0  0  0  0  0  0  0  0  0  0
   49.9753   17.5451   -1.8020 H   0  0  0  0  0  0  0  0  0  0  0  0
   47.5591   17.9580   -1.7395 H   0  0  0  0  0  0  0  0  0  0  0  0
   48.3594   16.3519   -9.6071 H   0  0  0  0  0  0  0  0  0  0  0  0
   50.3864   16.4178  -10.9844 H   0  0  0  0  0  0  0  0  0  0  0  0
   48.0929   18.3413  -11.4617 H   0  0  0  0  0  0  0  0  0  0  0  0
   48.1355   16.6178  -11.8921 H   0  0  0  0  0  0  0  0  0  0  0  0
   50.0643   18.5539  -13.1894 H   0  0  0  0  0  0  0  0  0  0  0  0
   49.1222   15.8218  -13.8320 H   0  0  0  0  0  0  0  0  0  0  0  0
   50.7046   16.2748  -13.2455 H   0  0  0  0  0  0  0  0  0  0  0  0
   50.1608   16.8304  -14.8104 H   0  0  0  0  0  0  0  0  0  0  0  0
   47.2286   17.6421  -13.7631 H   0  0  0  0  0  0  0  0  0  0  0  0
   48.2104   18.5882  -14.8560 H   0  0  0  0  0  0  0  0  0  0  0  0
   47.6825   19.2753  -13.3386 H   0  0  0  0  0  0  0  0  0  0  0  0
   49.4156   19.3610   -9.4374 H   0  0  0  0  0  0  0  0  0  0  0  0
   51.8528   20.8063  -10.2925 H   0  0  0  0  0  0  0  0  0  0  0  0
   49.0537   21.8876  -10.0417 H   0  0  0  0  0  0  0  0  0  0  0  0
   49.9028   21.6138  -11.5441 H   0  0  0  0  0  0  0  0  0  0  0  0
   50.4729   22.8309  -10.4275 H   0  0  0  0  0  0  0  0  0  0  0  0
  1  2  2  0  0  0  0
  1  3  1  0  0  0  0
  1 11  1  0  0  0  0
  3  4  1  0  0  0  0
  4  5  1  0  0  0  0
  4 37  1  0  0  0  0
  4 38  1  0  0  0  0
  5  6  2  0  0  0  0
  5 10  1  0  0  0  0
  6  7  1  0  0  0  0
  6 39  1  0  0  0  0
  7  8  2  0  0  0  0
  7 40  1  0  0  0  0
  8  9  1  0  0  0  0
  8 41  1  0  0  0  0
  9 10  2  0  0  0  0
  9 42  1  0  0  0  0
 10 43  1  0  0  0  0
 11 12  1  0  0  0  0
 11 44  1  0  0  0  0
 12 13  1  0  0  0  0
 12 16  1  0  0  0  0
 12 45  1  1  0  0  0
 13 14  2  6  0  0  0
 13 15  1  0  0  0  0
 13 23  1  0  0  0  0
 15 46  1  0  0  0  0
 16 17  1  0  0  0  0
 16 47  1  0  0  0  0
 16 48  1  0  0  0  0
 17 18  2  0  0  0  0
 17 19  1  0  0  0  0
 18 20  1  0  0  0  0
 18 49  1  0  0  0  0
 19 21  2  0  0  0  0
 19 50  1  0  0  0  0
 20 22  2  0  0  0  0
 20 51  1  0  0  0  0
 21 22  1  0  0  0  0
 21 52  1  0  0  0  0
 22 53  1  0  0  0  0
 23 24  1  0  0  0  0
 23 54  1  0  0  0  0
 24 25  1  0  0  0  0
 24 27  1  0  0  0  0
 24 55  1  6  0  0  0
 25 26  2  0  0  0  0
 25 31  1  0  0  0  0
 27 28  1  0  0  0  0
 27 56  1  0  0  0  0
 27 57  1  0  0  0  0
 28 29  1  0  0  0  0
 28 30  1  0  0  0  0
 28 58  1  0  0  0  0
 29 59  1  0  0  0  0
 29 60  1  0  0  0  0
 29 61  1  0  0  0  0
 30 62  1  0  0  0  0
 30 63  1  0  0  0  0
 30 64  1  0  0  0  0
 31 32  1  0  0  0  0
 31 65  1  0  0  0  0
 32 33  1  0  0  0  0
 32 35  1  0  0  0  0
 32 66  1  6  0  0  0
 33 34  2  0  0  0  0
 33 36  1  0  0  0  0
 35 67  1  0  0  0  0
 35 68  1  0  0  0  0
 35 69  1  0  0  0  0
M  END
$$$$
