RMSD_TEST/ORIGINAL_PDBS/ligand1TLP.pdb
 OpenBabel06251311173D

 70 72  0  0  1  0  0  0  0  0999 V2000
   51.2165   16.8879   -8.2684 C   0  0  1  0  0  0  0  0  0  0  0  0
   50.9545   18.1108   -7.6568 O   0  0  0  0  0  0  0  0  0  0  0  0
   50.2081   16.0861   -7.5125 C   0  0  2  0  0  0  0  0  0  0  0  0
   50.0125   14.7147   -8.0434 O   0  0  0  0  0  0  0  0  0  0  0  0
   48.9004   16.7217   -7.7930 C   0  0  2  0  0  0  0  0  0  0  0  0
   48.0613   15.9801   -6.9267 O   0  0  0  0  0  0  0  0  0  0  0  0
   48.6403   16.4730   -9.2680 C   0  0  1  0  0  0  0  0  0  0  0  0
   47.2969   16.6866   -9.5932 O   0  0  0  0  0  0  0  0  0  0  0  0
   49.5985   17.3477  -10.0927 C   0  0  1  0  0  0  0  0  0  0  0  0
   50.9453   16.9402   -9.6914 O   0  0  0  0  0  0  0  0  0  0  0  0
   49.3810   17.3680  -11.6119 C   0  0  0  0  0  0  0  0  0  0  0  0
   51.7526   18.8769   -6.6129 P   0  0  1  0  0  0  0  0  0  0  0  0
   53.2674   19.0293   -6.8924 O   0  0  0  0  0  0  0  0  0  0  0  0
   51.2312   20.2085   -6.3404 O   0  0  0  0  0  0  0  0  0  0  0  0
   51.7096   18.0782   -5.4345 N   0  0  0  0  0  0  0  0  0  0  0  0
   52.7344   17.9565   -4.4082 C   0  0  2  0  0  0  0  0  0  0  0  0
   53.5517   16.6973   -4.3967 C   0  0  0  0  0  0  0  0  0  0  0  0
   54.6862   16.8296   -3.9599 O   0  0  0  0  0  0  0  0  0  0  0  0
   52.1953   18.1804   -3.0043 C   0  0  0  0  0  0  0  0  0  0  0  0
   53.2915   18.0518   -1.8742 C   0  0  0  0  0  0  0  0  0  0  0  0
   54.4476   19.0780   -1.8507 C   0  0  0  0  0  0  0  0  0  0  0  0
   52.6975   18.0967   -0.4600 C   0  0  0  0  0  0  0  0  0  0  0  0
   52.9572   15.5356   -4.8512 N   0  0  0  0  0  0  0  0  0  0  0  0
   53.5840   14.2082   -4.9931 C   0  0  2  0  0  0  0  0  0  0  0  0
   52.7192   13.1941   -5.7846 C   0  0  0  0  0  0  0  0  0  0  0  0
   51.5352   13.6159   -5.9465 O   0  0  0  0  0  0  0  0  0  0  0  0
   54.0855   13.7571   -3.6017 C   0  0  0  0  0  0  0  0  0  0  0  0
   52.9951   13.3423   -2.7037 C   0  0  0  0  0  0  0  0  0  0  0  0
   52.2150   14.1738   -1.9641 C   0  0  0  0  0  0  0  0  0  0  0  0
   52.5363   12.0149   -2.4586 C   0  0  0  0  0  0  0  0  0  0  0  0
   51.2822   13.4680   -1.2665 N   0  0  0  0  0  0  0  0  0  0  0  0
   51.4565   12.1421   -1.5347 C   0  0  0  0  0  0  0  0  0  0  0  0
   52.9319   10.7492   -2.9246 C   0  0  0  0  0  0  0  0  0  0  0  0
   50.7413   11.0576   -1.0628 C   0  0  0  0  0  0  0  0  0  0  0  0
   52.2066    9.6706   -2.4597 C   0  0  0  0  0  0  0  0  0  0  0  0
   51.1488    9.8238   -1.5309 C   0  0  0  0  0  0  0  0  0  0  0  0
   53.2298   12.0635   -6.1841 O   0  0  0  0  0  0  0  0  0  0  0  0
   52.2229   16.5260   -8.2335 H   0  0  0  0  0  0  0  0  0  0  0  0
   50.5363   16.0459   -6.4949 H   0  0  0  0  0  0  0  0  0  0  0  0
   49.7153   14.7643   -8.9654 H   0  0  0  0  0  0  0  0  0  0  0  0
   48.7882   17.7736   -7.6326 H   0  0  0  0  0  0  0  0  0  0  0  0
   48.1823   15.0321   -7.0925 H   0  0  0  0  0  0  0  0  0  0  0  0
   48.8326   15.4469   -9.5026 H   0  0  0  0  0  0  0  0  0  0  0  0
   47.0602   17.6074   -9.4010 H   0  0  0  0  0  0  0  0  0  0  0  0
   49.4067   18.3769   -9.8717 H   0  0  0  0  0  0  0  0  0  0  0  0
   49.5379   16.3865  -12.0079 H   0  0  0  0  0  0  0  0  0  0  0  0
   50.0727   18.0491  -12.0621 H   0  0  0  0  0  0  0  0  0  0  0  0
   48.3807   17.6828  -11.8248 H   0  0  0  0  0  0  0  0  0  0  0  0
   51.2662   20.7413   -7.1502 H   0  0  0  0  0  0  0  0  0  0  0  0
   50.8780   18.3945   -4.9358 H   0  0  0  0  0  0  0  0  0  0  0  0
   53.3993   18.7424   -4.7001 H   0  0  0  0  0  0  0  0  0  0  0  0
   51.4305   17.4560   -2.8168 H   0  0  0  0  0  0  0  0  0  0  0  0
   51.8255   19.1839   -2.9680 H   0  0  0  0  0  0  0  0  0  0  0  0
   53.7005   17.1013   -2.1460 H   0  0  0  0  0  0  0  0  0  0  0  0
   54.0650   20.0402   -1.5809 H   0  0  0  0  0  0  0  0  0  0  0  0
   54.8965   19.1317   -2.8204 H   0  0  0  0  0  0  0  0  0  0  0  0
   55.1814   18.7722   -1.1344 H   0  0  0  0  0  0  0  0  0  0  0  0
   52.3116   19.0757   -0.2661 H   0  0  0  0  0  0  0  0  0  0  0  0
   53.4598   17.8660    0.2545 H   0  0  0  0  0  0  0  0  0  0  0  0
   51.9070   17.3797   -0.3823 H   0  0  0  0  0  0  0  0  0  0  0  0
   52.0094   15.6014   -5.1091 H   0  0  0  0  0  0  0  0  0  0  0  0
   54.4440   14.2680   -5.6269 H   0  0  0  0  0  0  0  0  0  0  0  0
   54.6098   14.5719   -3.1477 H   0  0  0  0  0  0  0  0  0  0  0  0
   54.7187   12.9074   -3.7499 H   0  0  0  0  0  0  0  0  0  0  0  0
   52.3157   15.2005   -1.9351 H   0  0  0  0  0  0  0  0  0  0  0  0
   50.5984   13.8499   -0.6701 H   0  0  0  0  0  0  0  0  0  0  0  0
   53.7216   10.6326   -3.5788 H   0  0  0  0  0  0  0  0  0  0  0  0
   49.9542   11.1629   -0.4037 H   0  0  0  0  0  0  0  0  0  0  0  0
   52.4423    8.7248   -2.7990 H   0  0  0  0  0  0  0  0  0  0  0  0
   50.6629    8.9796   -1.1901 H   0  0  0  0  0  0  0  0  0  0  0  0
  1  2  1  0  0  0  0
  1  3  1  0  0  0  0
  1 10  1  0  0  0  0
  1 38  1  1  0  0  0
  3  4  1  0  0  0  0
  3  5  1  0  0  0  0
  3 39  1  1  0  0  0
  4 40  1  0  0  0  0
  5  6  1  0  0  0  0
  5  7  1  0  0  0  0
  5 41  1  1  0  0  0
  6 42  1  0  0  0  0
  7  8  1  0  0  0  0
  7  9  1  0  0  0  0
  7 43  1  6  0  0  0
  8 44  1  0  0  0  0
  9 10  1  0  0  0  0
  9 11  1  0  0  0  0
  9 45  1  1  0  0  0
 11 46  1  0  0  0  0
 11 47  1  0  0  0  0
 11 48  1  0  0  0  0
 12  2  1  6  0  0  0
 12 13  2  0  0  0  0
 12 14  1  0  0  0  0
 12 15  1  0  0  0  0
 14 49  1  0  0  0  0
 15 16  1  0  0  0  0
 15 50  1  0  0  0  0
 16 17  1  0  0  0  0
 16 19  1  0  0  0  0
 16 51  1  6  0  0  0
 17 18  2  0  0  0  0
 17 23  1  0  0  0  0
 19 20  1  0  0  0  0
 19 52  1  0  0  0  0
 19 53  1  0  0  0  0
 20 21  1  0  0  0  0
 20 22  1  0  0  0  0
 20 54  1  0  0  0  0
 21 55  1  0  0  0  0
 21 56  1  0  0  0  0
 21 57  1  0  0  0  0
 22 58  1  0  0  0  0
 22 59  1  0  0  0  0
 22 60  1  0  0  0  0
 23 24  1  0  0  0  0
 23 61  1  0  0  0  0
 24 25  1  0  0  0  0
 24 27  1  0  0  0  0
 24 62  1  6  0  0  0
 25 26  2  0  0  0  0
 25 37  1  0  0  0  0
 27 28  1  0  0  0  0
 27 63  1  0  0  0  0
 27 64  1  0  0  0  0
 28 29  2  0  0  0  0
 28 30  1  0  0  0  0
 29 31  1  0  0  0  0
 29 65  1  0  0  0  0
 30 32  2  0  0  0  0
 30 33  1  0  0  0  0
 31 32  1  0  0  0  0
 31 66  1  0  0  0  0
 32 34  1  0  0  0  0
 33 35  2  0  0  0  0
 33 67  1  0  0  0  0
 34 36  2  0  0  0  0
 34 68  1  0  0  0  0
 35 36  1  0  0  0  0
 35 69  1  0  0  0  0
 36 70  1  0  0  0  0
M  END
$$$$
