RMSD_TEST/ORIGINAL_PDBS/ligand4TMN.pdb
 OpenBabel06251312143D

 69 70  0  0  1  0  0  0  0  0999 V2000
   50.0013   19.4485   -6.5962 C   0  0  0  0  0  0  0  0  0  0  0  0
   49.6332   19.7332   -5.4056 O   0  0  0  0  0  0  0  0  0  0  0  0
   50.2692   20.3463   -7.6078 O   0  0  0  0  0  0  0  0  0  0  0  0
   50.5710   21.7198   -7.3125 C   0  0  0  0  0  0  0  0  0  0  0  0
   49.9422   22.4203   -8.4641 C   0  0  0  0  0  0  0  0  0  0  0  0
   49.6630   21.9342   -9.7459 C   0  0  0  0  0  0  0  0  0  0  0  0
   49.0073   22.6934  -10.7507 C   0  0  0  0  0  0  0  0  0  0  0  0
   48.5649   23.9287  -10.5410 C   0  0  0  0  0  0  0  0  0  0  0  0
   48.8824   24.3250   -9.3041 C   0  0  0  0  0  0  0  0  0  0  0  0
   49.5217   23.6719   -8.2307 C   0  0  0  0  0  0  0  0  0  0  0  0
   50.2489   18.2192   -7.0737 N   0  0  0  0  0  0  0  0  0  0  0  0
   50.2051   17.0189   -6.1923 C   0  0  2  0  0  0  0  0  0  0  0  0
   51.6803   16.9456   -5.4522 P   0  0  1  0  0  0  0  0  0  0  0  0
   52.8489   16.7646   -6.4942 O   0  0  0  0  0  0  0  0  0  0  0  0
   51.9309   18.1670   -4.4725 O   0  0  0  0  0  0  0  0  0  0  0  0
   50.0425   15.8767   -7.1383 C   0  0  0  0  0  0  0  0  0  0  0  0
   48.6601   16.0259   -7.7398 C   0  0  0  0  0  0  0  0  0  0  0  0
   47.5831   15.6082   -6.9476 C   0  0  0  0  0  0  0  0  0  0  0  0
   48.4727   16.6047   -8.9699 C   0  0  0  0  0  0  0  0  0  0  0  0
   46.2687   15.7298   -7.4164 C   0  0  0  0  0  0  0  0  0  0  0  0
   47.1653   16.7262   -9.4629 C   0  0  0  0  0  0  0  0  0  0  0  0
   46.0643   16.2798   -8.6759 C   0  0  0  0  0  0  0  0  0  0  0  0
   51.4439   15.4224   -4.3436 N   0  0  0  0  0  0  0  0  0  0  0  0
   52.6859   14.7630   -3.9163 C   0  0  2  0  0  0  0  0  0  0  0  0
   53.2557   13.7316   -4.9036 C   0  0  0  0  0  0  0  0  0  0  0  0
   54.4741   13.6074   -5.0744 O   0  0  0  0  0  0  0  0  0  0  0  0
   52.5351   14.0322   -2.5762 C   0  0  0  0  0  0  0  0  0  0  0  0
   53.8208   13.4119   -2.0808 C   0  0  0  0  0  0  0  0  0  0  0  0
   54.7884   14.5040   -1.5893 C   0  0  0  0  0  0  0  0  0  0  0  0
   53.2758   12.5154   -0.9896 C   0  0  0  0  0  0  0  0  0  0  0  0
   52.3716   12.9483   -5.4893 N   0  0  0  0  0  0  0  0  0  0  0  0
   52.6902   11.8528   -6.4272 C   0  0  2  0  0  0  0  0  0  0  0  0
   51.8566   11.9832   -7.7266 C   0  0  0  0  0  0  0  0  0  0  0  0
   50.8598   12.7337   -7.7686 O   0  0  0  0  0  0  0  0  0  0  0  0
   52.4029   10.5323   -5.7362 C   0  0  0  0  0  0  0  0  0  0  0  0
   52.1425   11.4518   -8.8605 O   0  0  0  0  0  0  0  0  0  0  0  0
   50.1339   22.0246   -6.3846 H   0  0  0  0  0  0  0  0  0  0  0  0
   51.6159   21.9207   -7.1996 H   0  0  0  0  0  0  0  0  0  0  0  0
   49.9497   20.9695   -9.9740 H   0  0  0  0  0  0  0  0  0  0  0  0
   48.8687   22.2688  -11.6810 H   0  0  0  0  0  0  0  0  0  0  0  0
   48.0517   24.4987  -11.2315 H   0  0  0  0  0  0  0  0  0  0  0  0
   48.6058   25.2969   -9.0946 H   0  0  0  0  0  0  0  0  0  0  0  0
   49.6585   24.1313   -7.3167 H   0  0  0  0  0  0  0  0  0  0  0  0
   50.4643   18.1079   -8.0278 H   0  0  0  0  0  0  0  0  0  0  0  0
   49.4316   17.0230   -5.4529 H   0  0  0  0  0  0  0  0  0  0  0  0
   52.0588   18.9766   -4.9912 H   0  0  0  0  0  0  0  0  0  0  0  0
   50.1219   14.9466   -6.6153 H   0  0  0  0  0  0  0  0  0  0  0  0
   50.8009   15.8820   -7.8931 H   0  0  0  0  0  0  0  0  0  0  0  0
   47.7590   15.2084   -6.0126 H   0  0  0  0  0  0  0  0  0  0  0  0
   49.2770   16.9436   -9.5208 H   0  0  0  0  0  0  0  0  0  0  0  0
   45.4712   15.4184   -6.8401 H   0  0  0  0  0  0  0  0  0  0  0  0
   47.0008   17.1384  -10.3945 H   0  0  0  0  0  0  0  0  0  0  0  0
   45.1045   16.3659   -9.0455 H   0  0  0  0  0  0  0  0  0  0  0  0
   50.9381   15.7156   -3.5078 H   0  0  0  0  0  0  0  0  0  0  0  0
   53.3627   15.5887   -3.8462 H   0  0  0  0  0  0  0  0  0  0  0  0
   51.8078   13.2563   -2.6933 H   0  0  0  0  0  0  0  0  0  0  0  0
   52.2373   14.7610   -1.8516 H   0  0  0  0  0  0  0  0  0  0  0  0
   54.4084   12.8796   -2.7993 H   0  0  0  0  0  0  0  0  0  0  0  0
   54.2999   15.1087   -0.8540 H   0  0  0  0  0  0  0  0  0  0  0  0
   55.0843   15.1164   -2.4154 H   0  0  0  0  0  0  0  0  0  0  0  0
   55.6534   14.0460   -1.1570 H   0  0  0  0  0  0  0  0  0  0  0  0
   52.6990   13.0994   -0.3030 H   0  0  0  0  0  0  0  0  0  0  0  0
   54.0882   12.0526   -0.4692 H   0  0  0  0  0  0  0  0  0  0  0  0
   52.6549   11.7605   -1.4250 H   0  0  0  0  0  0  0  0  0  0  0  0
   51.4216   13.1066   -5.2848 H   0  0  0  0  0  0  0  0  0  0  0  0
   53.7230   11.9009   -6.7027 H   0  0  0  0  0  0  0  0  0  0  0  0
   51.3692   10.4901   -5.4632 H   0  0  0  0  0  0  0  0  0  0  0  0
   53.0075   10.4508   -4.8571 H   0  0  0  0  0  0  0  0  0  0  0  0
   52.6294    9.7251   -6.4009 H   0  0  0  0  0  0  0  0  0  0  0  0
  1  2  2  0  0  0  0
  1  3  1  0  0  0  0
  1 11  1  0  0  0  0
  3  4  1  0  0  0  0
  4  5  1  0  0  0  0
  4 37  1  0  0  0  0
  4 38  1  0  0  0  0
  5  6  2  0  0  0  0
  5 10  1  0  0  0  0
  6  7  1  0  0  0  0
  6 39  1  0  0  0  0
  7  8  2  0  0  0  0
  7 40  1  0  0  0  0
  8  9  1  0  0  0  0
  8 41  1  0  0  0  0
  9 10  2  0  0  0  0
  9 42  1  0  0  0  0
 10 43  1  0  0  0  0
 11 12  1  0  0  0  0
 11 44  1  0  0  0  0
 12 13  1  0  0  0  0
 12 16  1  0  0  0  0
 12 45  1  1  0  0  0
 13 14  2  6  0  0  0
 13 15  1  0  0  0  0
 13 23  1  0  0  0  0
 15 46  1  0  0  0  0
 16 17  1  0  0  0  0
 16 47  1  0  0  0  0
 16 48  1  0  0  0  0
 17 18  2  0  0  0  0
 17 19  1  0  0  0  0
 18 20  1  0  0  0  0
 18 49  1  0  0  0  0
 19 21  2  0  0  0  0
 19 50  1  0  0  0  0
 20 22  2  0  0  0  0
 20 51  1  0  0  0  0
 21 22  1  0  0  0  0
 21 52  1  0  0  0  0
 22 53  1  0  0  0  0
 23 24  1  0  0  0  0
 23 54  1  0  0  0  0
 24 25  1  0  0  0  0
 24 27  1  0  0  0  0
 24 55  1  1  0  0  0
 25 26  2  0  0  0  0
 25 31  1  0  0  0  0
 27 28  1  0  0  0  0
 27 56  1  0  0  0  0
 27 57  1  0  0  0  0
 28 29  1  0  0  0  0
 28 30  1  0  0  0  0
 28 58  1  0  0  0  0
 29 59  1  0  0  0  0
 29 60  1  0  0  0  0
 29 61  1  0  0  0  0
 30 62  1  0  0  0  0
 30 63  1  0  0  0  0
 30 64  1  0  0  0  0
 31 32  1  0  0  0  0
 31 65  1  0  0  0  0
 32 33  1  0  0  0  0
 32 35  1  0  0  0  0
 32 66  1  6  0  0  0
 33 34  2  0  0  0  0
 33 36  1  0  0  0  0
 35 67  1  0  0  0  0
 35 68  1  0  0  0  0
 35 69  1  0  0  0  0
M  END
$$$$
