RMSD_TEST/ORIGINAL_PDBS/ligand1TLP.pdb
 OpenBabel06251312053D

 70 72  0  0  1  0  0  0  0  0999 V2000
   50.9097   17.2010   -7.1870 C   0  0  1  0  0  0  0  0  0  0  0  0
   50.7385   18.4009   -6.5019 O   0  0  0  0  0  0  0  0  0  0  0  0
   49.9838   16.3798   -6.3506 C   0  0  2  0  0  0  0  0  0  0  0  0
   49.7076   15.0331   -6.9080 O   0  0  0  0  0  0  0  0  0  0  0  0
   48.6620   17.0396   -6.4520 C   0  0  2  0  0  0  0  0  0  0  0  0
   47.9180   16.2723   -5.5234 O   0  0  0  0  0  0  0  0  0  0  0  0
   48.2291   16.8533   -7.8952 C   0  0  1  0  0  0  0  0  0  0  0  0
   46.8604   17.0936   -8.0533 O   0  0  0  0  0  0  0  0  0  0  0  0
   49.0981   17.7507   -8.7912 C   0  0  1  0  0  0  0  0  0  0  0  0
   50.4762   17.3135   -8.5656 O   0  0  0  0  0  0  0  0  0  0  0  0
   48.7063   17.8346  -10.2729 C   0  0  0  0  0  0  0  0  0  0  0  0
   51.6635   19.1160   -5.5290 P   0  0  1  0  0  0  0  0  0  0  0  0
   53.1378   19.2640   -5.9768 O   0  0  0  0  0  0  0  0  0  0  0  0
   51.1971   20.4408   -5.1461 O   0  0  0  0  0  0  0  0  0  0  0  0
   51.7455   18.2709   -4.3856 N   0  0  0  0  0  0  0  0  0  0  0  0
   52.8805   18.0974   -3.4910 C   0  0  2  0  0  0  0  0  0  0  0  0
   53.6748   16.8304   -3.6238 C   0  0  0  0  0  0  0  0  0  0  0  0
   54.8541   16.9333   -3.3172 O   0  0  0  0  0  0  0  0  0  0  0  0
   52.5111   18.2699   -2.0263 C   0  0  0  0  0  0  0  0  0  0  0  0
   53.7289   18.0846   -1.0374 C   0  0  0  0  0  0  0  0  0  0  0  0
   54.8950   19.0970   -1.1087 C   0  0  0  0  0  0  0  0  0  0  0  0
   53.3036   18.0784    0.4370 C   0  0  0  0  0  0  0  0  0  0  0  0
   53.0144   15.6941   -4.0509 N   0  0  0  0  0  0  0  0  0  0  0  0
   53.6007   14.3672   -4.3163 C   0  0  2  0  0  0  0  0  0  0  0  0
   52.6349   13.3948   -5.0407 C   0  0  0  0  0  0  0  0  0  0  0  0
   51.4465   13.8349   -5.0470 O   0  0  0  0  0  0  0  0  0  0  0  0
   54.2533   13.8552   -3.0114 C   0  0  0  0  0  0  0  0  0  0  0  0
   53.2683   13.4156   -2.0093 C   0  0  0  0  0  0  0  0  0  0  0  0
   52.5916   14.2245   -1.1522 C   0  0  0  0  0  0  0  0  0  0  0  0
   52.8213   12.0842   -1.7644 C   0  0  0  0  0  0  0  0  0  0  0  0
   51.7356   13.5008   -0.3787 N   0  0  0  0  0  0  0  0  0  0  0  0
   51.8579   12.1851   -0.7168 C   0  0  0  0  0  0  0  0  0  0  0  0
   53.1413   10.8343   -2.3222 C   0  0  0  0  0  0  0  0  0  0  0  0
   51.1861   11.0898   -0.2074 C   0  0  0  0  0  0  0  0  0  0  0  0
   52.4589    9.7454   -1.8183 C   0  0  0  0  0  0  0  0  0  0  0  0
   51.5183    9.8718   -0.7674 C   0  0  0  0  0  0  0  0  0  0  0  0
   53.0790   12.2760   -5.5406 O   0  0  0  0  0  0  0  0  0  0  0  0
   51.9078   16.8277   -7.2836 H   0  0  0  0  0  0  0  0  0  0  0  0
   50.4271   16.2952   -5.3804 H   0  0  0  0  0  0  0  0  0  0  0  0
   49.3063   15.1228   -7.7866 H   0  0  0  0  0  0  0  0  0  0  0  0
   48.5849   18.0853   -6.2388 H   0  0  0  0  0  0  0  0  0  0  0  0
   48.0049   15.3306   -5.7390 H   0  0  0  0  0  0  0  0  0  0  0  0
   48.3775   15.8356   -8.1904 H   0  0  0  0  0  0  0  0  0  0  0  0
   46.6612   18.0083   -7.7992 H   0  0  0  0  0  0  0  0  0  0  0  0
   48.9485   18.7721   -8.5095 H   0  0  0  0  0  0  0  0  0  0  0  0
   48.8016   16.8683  -10.7223 H   0  0  0  0  0  0  0  0  0  0  0  0
   49.3512   18.5262  -10.7737 H   0  0  0  0  0  0  0  0  0  0  0  0
   47.6929   18.1680  -10.3554 H   0  0  0  0  0  0  0  0  0  0  0  0
   51.1459   21.0055   -5.9331 H   0  0  0  0  0  0  0  0  0  0  0  0
   50.9821   18.5753   -3.7815 H   0  0  0  0  0  0  0  0  0  0  0  0
   53.5187   18.8875   -3.8276 H   0  0  0  0  0  0  0  0  0  0  0  0
   51.7625   17.5464   -1.7794 H   0  0  0  0  0  0  0  0  0  0  0  0
   52.1630   19.2748   -1.9083 H   0  0  0  0  0  0  0  0  0  0  0  0
   54.0895   17.1416   -1.3917 H   0  0  0  0  0  0  0  0  0  0  0  0
   54.5607   20.0514   -0.7590 H   0  0  0  0  0  0  0  0  0  0  0  0
   55.2293   19.1853   -2.1213 H   0  0  0  0  0  0  0  0  0  0  0  0
   55.7023   18.7551   -0.4952 H   0  0  0  0  0  0  0  0  0  0  0  0
   52.9573   19.0526    0.7124 H   0  0  0  0  0  0  0  0  0  0  0  0
   54.1401   17.8112    1.0484 H   0  0  0  0  0  0  0  0  0  0  0  0
   52.5168   17.3670    0.5783 H   0  0  0  0  0  0  0  0  0  0  0  0
   52.0442   15.7800   -4.1939 H   0  0  0  0  0  0  0  0  0  0  0  0
   54.3822   14.4437   -5.0431 H   0  0  0  0  0  0  0  0  0  0  0  0
   54.8388   14.6455   -2.5901 H   0  0  0  0  0  0  0  0  0  0  0  0
   54.8523   13.0057   -3.2652 H   0  0  0  0  0  0  0  0  0  0  0  0
   52.7103   15.2481   -1.0952 H   0  0  0  0  0  0  0  0  0  0  0  0
   51.1312   13.8653    0.3077 H   0  0  0  0  0  0  0  0  0  0  0  0
   53.8480   10.7361   -3.0678 H   0  0  0  0  0  0  0  0  0  0  0  0
   50.4824   11.1765    0.5424 H   0  0  0  0  0  0  0  0  0  0  0  0
   52.6395    8.8117   -2.2192 H   0  0  0  0  0  0  0  0  0  0  0  0
   51.0626    9.0196   -0.4055 H   0  0  0  0  0  0  0  0  0  0  0  0
  1  2  1  0  0  0  0
  1  3  1  0  0  0  0
  1 10  1  0  0  0  0
  1 38  1  1  0  0  0
  3  4  1  0  0  0  0
  3  5  1  0  0  0  0
  3 39  1  1  0  0  0
  4 40  1  0  0  0  0
  5  6  1  0  0  0  0
  5  7  1  0  0  0  0
  5 41  1  1  0  0  0
  6 42  1  0  0  0  0
  7  8  1  0  0  0  0
  7  9  1  0  0  0  0
  7 43  1  6  0  0  0
  8 44  1  0  0  0  0
  9 10  1  0  0  0  0
  9 11  1  0  0  0  0
  9 45  1  1  0  0  0
 11 46  1  0  0  0  0
 11 47  1  0  0  0  0
 11 48  1  0  0  0  0
 12  2  1  6  0  0  0
 12 13  2  0  0  0  0
 12 14  1  0  0  0  0
 12 15  1  0  0  0  0
 14 49  1  0  0  0  0
 15 16  1  0  0  0  0
 15 50  1  0  0  0  0
 16 17  1  0  0  0  0
 16 19  1  0  0  0  0
 16 51  1  6  0  0  0
 17 18  2  0  0  0  0
 17 23  1  0  0  0  0
 19 20  1  0  0  0  0
 19 52  1  0  0  0  0
 19 53  1  0  0  0  0
 20 21  1  0  0  0  0
 20 22  1  0  0  0  0
 20 54  1  0  0  0  0
 21 55  1  0  0  0  0
 21 56  1  0  0  0  0
 21 57  1  0  0  0  0
 22 58  1  0  0  0  0
 22 59  1  0  0  0  0
 22 60  1  0  0  0  0
 23 24  1  0  0  0  0
 23 61  1  0  0  0  0
 24 25  1  0  0  0  0
 24 27  1  0  0  0  0
 24 62  1  6  0  0  0
 25 26  2  0  0  0  0
 25 37  1  0  0  0  0
 27 28  1  0  0  0  0
 27 63  1  0  0  0  0
 27 64  1  0  0  0  0
 28 29  2  0  0  0  0
 28 30  1  0  0  0  0
 29 31  1  0  0  0  0
 29 65  1  0  0  0  0
 30 32  2  0  0  0  0
 30 33  1  0  0  0  0
 31 32  1  0  0  0  0
 31 66  1  0  0  0  0
 32 34  1  0  0  0  0
 33 35  2  0  0  0  0
 33 67  1  0  0  0  0
 34 36  2  0  0  0  0
 34 68  1  0  0  0  0
 35 36  1  0  0  0  0
 35 69  1  0  0  0  0
 36 70  1  0  0  0  0
M  END
$$$$
