RMSD_TEST/ORIGINAL_PDBS/ligand1TMN.pdb
 OpenBabel06251311563D

 69 71  0  0  1  0  0  0  0  0999 V2000
   52.0594   18.9383   -5.6272 C   0  0  1  0  0  0  0  0  0  0  0  0
   50.8215   19.1752   -6.5111 C   0  0  0  0  0  0  0  0  0  0  0  0
   50.2710   17.8045   -6.9250 C   0  0  0  0  0  0  0  0  0  0  0  0
   49.0037   17.7660   -7.8058 C   0  0  0  0  0  0  0  0  0  0  0  0
   49.1001   17.8859   -9.1867 C   0  0  0  0  0  0  0  0  0  0  0  0
   47.7920   17.4860   -7.2242 C   0  0  0  0  0  0  0  0  0  0  0  0
   47.9612   17.7697  -10.0068 C   0  0  0  0  0  0  0  0  0  0  0  0
   46.6401   17.3793   -8.0240 C   0  0  0  0  0  0  0  0  0  0  0  0
   46.7136   17.5306   -9.4232 C   0  0  0  0  0  0  0  0  0  0  0  0
   53.0699   19.9338   -6.1473 C   0  0  0  0  0  0  0  0  0  0  0  0
   53.9321   19.5949   -6.9850 O   0  0  0  0  0  0  0  0  0  0  0  0
   52.9675   21.1213   -5.8278 O   0  0  0  0  0  0  0  0  0  0  0  0
   51.8381   18.9046   -4.1296 N   0  0  0  0  0  0  0  0  0  0  0  0
   53.0537   18.5735   -3.3457 C   0  0  2  0  0  0  0  0  0  0  0  0
   53.8298   17.3226   -3.7821 C   0  0  0  0  0  0  0  0  0  0  0  0
   55.0933   17.2950   -3.7702 O   0  0  0  0  0  0  0  0  0  0  0  0
   52.6778   18.3941   -1.8737 C   0  0  0  0  0  0  0  0  0  0  0  0
   53.9588   18.3276   -1.0635 C   0  0  0  0  0  0  0  0  0  0  0  0
   54.7773   19.6030   -1.2502 C   0  0  0  0  0  0  0  0  0  0  0  0
   53.5645   18.1055    0.3903 C   0  0  0  0  0  0  0  0  0  0  0  0
   53.0337   16.3112   -4.1086 N   0  0  0  0  0  0  0  0  0  0  0  0
   53.5365   14.9985   -4.5466 C   0  0  2  0  0  0  0  0  0  0  0  0
   52.6624   14.2732   -5.5638 C   0  0  0  0  0  0  0  0  0  0  0  0
   51.6796   14.9153   -6.0512 O   0  0  0  0  0  0  0  0  0  0  0  0
   53.9346   14.0871   -3.3485 C   0  0  0  0  0  0  0  0  0  0  0  0
   52.6691   13.6074   -2.6421 C   0  0  1  0  0  0  0  0  0  0  0  0
   51.5841   14.3038   -2.3092 C   0  0  0  0  0  0  0  0  0  0  0  0
   52.3805   12.2888   -2.3067 C   0  0  0  0  0  0  0  0  0  0  0  0
   50.5347   13.4137   -2.0031 N   0  0  0  0  0  0  0  0  0  0  0  0
   50.9912   12.2267   -2.0823 C   0  0  0  0  0  0  0  0  0  0  0  0
   53.2061   11.1692   -2.2078 C   0  0  0  0  0  0  0  0  0  0  0  0
   50.3267   11.0317   -1.8581 C   0  0  0  0  0  0  0  0  0  0  0  0
   52.5614    9.9582   -1.8977 C   0  0  0  0  0  0  0  0  0  0  0  0
   51.1523    9.8889   -1.7591 C   0  0  0  0  0  0  0  0  0  0  0  0
   53.1248   13.2449   -6.1761 O   0  0  0  0  0  0  0  0  0  0  0  0
   52.4170   17.9339   -5.7168 H   0  0  0  0  0  0  0  0  0  0  0  0
   51.0969   19.7344   -7.3807 H   0  0  0  0  0  0  0  0  0  0  0  0
   50.0798   19.7291   -5.9744 H   0  0  0  0  0  0  0  0  0  0  0  0
   50.0502   17.2664   -6.0269 H   0  0  0  0  0  0  0  0  0  0  0  0
   51.0375   17.3852   -7.5427 H   0  0  0  0  0  0  0  0  0  0  0  0
   50.0208   18.0628   -9.6181 H   0  0  0  0  0  0  0  0  0  0  0  0
   47.7266   17.3541   -6.2027 H   0  0  0  0  0  0  0  0  0  0  0  0
   48.0470   17.8606  -11.0312 H   0  0  0  0  0  0  0  0  0  0  0  0
   45.7284   17.1875   -7.5802 H   0  0  0  0  0  0  0  0  0  0  0  0
   45.8637   17.4663  -10.0052 H   0  0  0  0  0  0  0  0  0  0  0  0
   51.1252   18.2038   -3.9268 H   0  0  0  0  0  0  0  0  0  0  0  0
   51.5560   19.8447   -3.8523 H   0  0  0  0  0  0  0  0  0  0  0  0
   53.7078   19.4021   -3.5206 H   0  0  0  0  0  0  0  0  0  0  0  0
   52.1228   17.4878   -1.7492 H   0  0  0  0  0  0  0  0  0  0  0  0
   52.0731   19.2128   -1.5436 H   0  0  0  0  0  0  0  0  0  0  0  0
   54.5819   17.5221   -1.3915 H   0  0  0  0  0  0  0  0  0  0  0  0
   54.1995   20.4469   -0.9359 H   0  0  0  0  0  0  0  0  0  0  0  0
   55.0364   19.7126   -2.2826 H   0  0  0  0  0  0  0  0  0  0  0  0
   55.6698   19.5432   -0.6630 H   0  0  0  0  0  0  0  0  0  0  0  0
   52.9413   18.9112    0.7180 H   0  0  0  0  0  0  0  0  0  0  0  0
   54.4452   18.0664    0.9968 H   0  0  0  0  0  0  0  0  0  0  0  0
   53.0299   17.1828    0.4779 H   0  0  0  0  0  0  0  0  0  0  0  0
   52.0599   16.4455   -4.0551 H   0  0  0  0  0  0  0  0  0  0  0  0
   54.4301   15.2282   -5.0885 H   0  0  0  0  0  0  0  0  0  0  0  0
   54.5395   14.6418   -2.6620 H   0  0  0  0  0  0  0  0  0  0  0  0
   54.4889   13.2444   -3.7059 H   0  0  0  0  0  0  0  0  0  0  0  0
   53.5899   14.1351   -2.7777 H   0  0  0  0  0  0  0  0  0  0  0  0
   51.7978   14.9117   -1.4550 H   0  0  0  0  0  0  0  0  0  0  0  0
   51.2954   14.9303   -3.1272 H   0  0  0  0  0  0  0  0  0  0  0  0
   49.6120   13.6648   -1.7693 H   0  0  0  0  0  0  0  0  0  0  0  0
   54.2263   11.2257   -2.3530 H   0  0  0  0  0  0  0  0  0  0  0  0
   49.2998   10.9797   -1.7695 H   0  0  0  0  0  0  0  0  0  0  0  0
   53.1252    9.1035   -1.7686 H   0  0  0  0  0  0  0  0  0  0  0  0
   50.7140    8.9719   -1.5797 H   0  0  0  0  0  0  0  0  0  0  0  0
  1 13  1  0  0  0  0
  1 10  1  0  0  0  0
  1  2  1  0  0  0  0
  1 36  1  6  0  0  0
  2  3  1  0  0  0  0
  2 37  1  0  0  0  0
  2 38  1  0  0  0  0
  3  4  1  0  0  0  0
  3 39  1  0  0  0  0
  3 40  1  0  0  0  0
  4  6  2  0  0  0  0
  4  5  1  0  0  0  0
  5  7  2  0  0  0  0
  5 41  1  0  0  0  0
  6  8  1  0  0  0  0
  6 42  1  0  0  0  0
  7  9  1  0  0  0  0
  7 43  1  0  0  0  0
  8  9  2  0  0  0  0
  8 44  1  0  0  0  0
  9 45  1  0  0  0  0
 10 12  2  0  0  0  0
 10 11  1  0  0  0  0
 13 14  1  0  0  0  0
 13 46  1  0  0  0  0
 13 47  1  0  0  0  0
 14 15  1  0  0  0  0
 14 17  1  0  0  0  0
 14 48  1  6  0  0  0
 15 21  1  0  0  0  0
 15 16  2  0  0  0  0
 17 18  1  0  0  0  0
 17 49  1  0  0  0  0
 17 50  1  0  0  0  0
 18 19  1  0  0  0  0
 18 20  1  0  0  0  0
 18 51  1  0  0  0  0
 19 52  1  0  0  0  0
 19 53  1  0  0  0  0
 19 54  1  0  0  0  0
 20 55  1  0  0  0  0
 20 56  1  0  0  0  0
 20 57  1  0  0  0  0
 21 22  1  0  0  0  0
 21 58  1  0  0  0  0
 22 25  1  0  0  0  0
 22 23  1  0  0  0  0
 22 59  1  6  0  0  0
 23 35  2  0  0  0  0
 23 24  1  0  0  0  0
 25 26  1  0  0  0  0
 25 60  1  0  0  0  0
 25 61  1  0  0  0  0
 26 27  1  0  0  0  0
 26 28  1  0  0  0  0
 26 62  1  1  0  0  0
 27 29  1  0  0  0  0
 27 63  1  0  0  0  0
 27 64  1  0  0  0  0
 28 30  2  0  0  0  0
 28 31  1  0  0  0  0
 29 30  1  0  0  0  0
 29 65  1  0  0  0  0
 30 32  1  0  0  0  0
 31 33  2  0  0  0  0
 31 66  1  0  0  0  0
 32 34  2  0  0  0  0
 32 67  1  0  0  0  0
 33 34  1  0  0  0  0
 33 68  1  0  0  0  0
 34 69  1  0  0  0  0
M  END
$$$$
