RMSD_TEST/ORIGINAL_PDBS/ligand1TLP.pdb
 OpenBabel06251311423D

 70 72  0  0  1  0  0  0  0  0999 V2000
   51.5700   17.9644   -7.4719 C   0  0  1  0  0  0  0  0  0  0  0  0
   51.3577   19.1085   -6.7077 O   0  0  0  0  0  0  0  0  0  0  0  0
   50.4865   17.1351   -6.8639 C   0  0  2  0  0  0  0  0  0  0  0  0
   50.2304   15.8629   -7.5826 O   0  0  0  0  0  0  0  0  0  0  0  0
   49.2312   17.8856   -7.0952 C   0  0  2  0  0  0  0  0  0  0  0  0
   48.3159   17.0902   -6.3644 O   0  0  0  0  0  0  0  0  0  0  0  0
   49.0148   17.8544   -8.5977 C   0  0  1  0  0  0  0  0  0  0  0  0
   47.7004   18.1958   -8.9319 O   0  0  0  0  0  0  0  0  0  0  0  0
   50.0551   18.7682   -9.2655 C   0  0  1  0  0  0  0  0  0  0  0  0
   51.3585   18.2245   -8.8822 O   0  0  0  0  0  0  0  0  0  0  0  0
   49.8991   19.0062  -10.7737 C   0  0  0  0  0  0  0  0  0  0  0  0
   52.1584   19.6745   -5.5450 P   0  0  1  0  0  0  0  0  0  0  0  0
   53.6894   19.7651   -5.7543 O   0  0  0  0  0  0  0  0  0  0  0  0
   51.7072   20.9883   -5.1096 O   0  0  0  0  0  0  0  0  0  0  0  0
   52.0216   18.7294   -4.4884 N   0  0  0  0  0  0  0  0  0  0  0  0
   52.9962   18.4053   -3.4571 C   0  0  2  0  0  0  0  0  0  0  0  0
   53.7358   17.1059   -3.5923 C   0  0  0  0  0  0  0  0  0  0  0  0
   54.8581   17.1049   -3.1068 O   0  0  0  0  0  0  0  0  0  0  0  0
   52.4167   18.4731   -2.0531 C   0  0  0  0  0  0  0  0  0  0  0  0
   53.4581   18.1236   -0.9179 C   0  0  0  0  0  0  0  0  0  0  0  0
   54.6716   19.0606   -0.7190 C   0  0  0  0  0  0  0  0  0  0  0  0
   52.8128   18.0165    0.4702 C   0  0  0  0  0  0  0  0  0  0  0  0
   53.0913   16.0564   -4.2191 N   0  0  0  0  0  0  0  0  0  0  0  0
   53.6428   14.7224   -4.5213 C   0  0  2  0  0  0  0  0  0  0  0  0
   52.7507   13.8816   -5.4700 C   0  0  0  0  0  0  0  0  0  0  0  0
   51.6012   14.3968   -5.6093 O   0  0  0  0  0  0  0  0  0  0  0  0
   54.0614   14.0573   -3.1897 C   0  0  0  0  0  0  0  0  0  0  0  0
   52.9139   13.5970   -2.3906 C   0  0  0  0  0  0  0  0  0  0  0  0
   52.1563   14.3702   -1.5690 C   0  0  0  0  0  0  0  0  0  0  0  0
   52.3673   12.2811   -2.3431 C   0  0  0  0  0  0  0  0  0  0  0  0
   51.1564   13.6389   -1.0032 N   0  0  0  0  0  0  0  0  0  0  0  0
   51.2616   12.3525   -1.4442 C   0  0  0  0  0  0  0  0  0  0  0  0
   52.7046   11.0665   -2.9650 C   0  0  0  0  0  0  0  0  0  0  0  0
   50.4649   11.2628   -1.1469 C   0  0  0  0  0  0  0  0  0  0  0  0
   51.8986    9.9843   -2.6740 C   0  0  0  0  0  0  0  0  0  0  0  0
   50.8161   10.0794   -1.7661 C   0  0  0  0  0  0  0  0  0  0  0  0
   53.2082   12.7843   -6.0041 O   0  0  0  0  0  0  0  0  0  0  0  0
   52.5508   17.5369   -7.4558 H   0  0  0  0  0  0  0  0  0  0  0  0
   50.7715   16.9377   -5.8516 H   0  0  0  0  0  0  0  0  0  0  0  0
   49.9732   16.0548   -8.4980 H   0  0  0  0  0  0  0  0  0  0  0  0
   49.1758   18.9116   -6.7964 H   0  0  0  0  0  0  0  0  0  0  0  0
   48.3865   16.1672   -6.6542 H   0  0  0  0  0  0  0  0  0  0  0  0
   49.1545   16.8588   -8.9640 H   0  0  0  0  0  0  0  0  0  0  0  0
   47.5117   19.0959   -8.6234 H   0  0  0  0  0  0  0  0  0  0  0  0
   49.9166   19.7686   -8.9122 H   0  0  0  0  0  0  0  0  0  0  0  0
   50.0125   18.0786  -11.2948 H   0  0  0  0  0  0  0  0  0  0  0  0
   50.6473   19.6955  -11.1053 H   0  0  0  0  0  0  0  0  0  0  0  0
   48.9285   19.4105  -10.9724 H   0  0  0  0  0  0  0  0  0  0  0  0
   51.8057   21.6217   -5.8377 H   0  0  0  0  0  0  0  0  0  0  0  0
   51.1914   19.0289   -3.9771 H   0  0  0  0  0  0  0  0  0  0  0  0
   53.7178   19.1787   -3.6186 H   0  0  0  0  0  0  0  0  0  0  0  0
   51.6032   17.7809   -1.9898 H   0  0  0  0  0  0  0  0  0  0  0  0
   52.1064   19.4843   -1.8918 H   0  0  0  0  0  0  0  0  0  0  0  0
   53.8200   17.1937   -1.3040 H   0  0  0  0  0  0  0  0  0  0  0  0
   54.3368   20.0006   -0.3325 H   0  0  0  0  0  0  0  0  0  0  0  0
   55.1606   19.2150   -1.6581 H   0  0  0  0  0  0  0  0  0  0  0  0
   55.3571   18.6149   -0.0289 H   0  0  0  0  0  0  0  0  0  0  0  0
   52.4787   18.9834    0.7838 H   0  0  0  0  0  0  0  0  0  0  0  0
   53.5314   17.6433    1.1697 H   0  0  0  0  0  0  0  0  0  0  0  0
   51.9785   17.3481    0.4251 H   0  0  0  0  0  0  0  0  0  0  0  0
   52.1600   16.2172   -4.4947 H   0  0  0  0  0  0  0  0  0  0  0  0
   54.5290   14.8112   -5.1142 H   0  0  0  0  0  0  0  0  0  0  0  0
   54.6153   14.7683   -2.6128 H   0  0  0  0  0  0  0  0  0  0  0  0
   54.6481   13.1961   -3.4327 H   0  0  0  0  0  0  0  0  0  0  0  0
   52.3169   15.3751   -1.3971 H   0  0  0  0  0  0  0  0  0  0  0  0
   50.4737   13.9806   -0.3816 H   0  0  0  0  0  0  0  0  0  0  0  0
   53.5110   10.9880   -3.6043 H   0  0  0  0  0  0  0  0  0  0  0  0
   49.6602   11.3293   -0.5041 H   0  0  0  0  0  0  0  0  0  0  0  0
   52.0904    9.0794   -3.1317 H   0  0  0  0  0  0  0  0  0  0  0  0
   50.2677    9.2302   -1.5587 H   0  0  0  0  0  0  0  0  0  0  0  0
  1  2  1  0  0  0  0
  1  3  1  0  0  0  0
  1 10  1  0  0  0  0
  1 38  1  1  0  0  0
  3  4  1  0  0  0  0
  3  5  1  0  0  0  0
  3 39  1  1  0  0  0
  4 40  1  0  0  0  0
  5  6  1  0  0  0  0
  5  7  1  0  0  0  0
  5 41  1  1  0  0  0
  6 42  1  0  0  0  0
  7  8  1  0  0  0  0
  7  9  1  0  0  0  0
  7 43  1  6  0  0  0
  8 44  1  0  0  0  0
  9 10  1  0  0  0  0
  9 11  1  0  0  0  0
  9 45  1  1  0  0  0
 11 46  1  0  0  0  0
 11 47  1  0  0  0  0
 11 48  1  0  0  0  0
 12  2  1  6  0  0  0
 12 13  2  0  0  0  0
 12 14  1  0  0  0  0
 12 15  1  0  0  0  0
 14 49  1  0  0  0  0
 15 16  1  0  0  0  0
 15 50  1  0  0  0  0
 16 17  1  0  0  0  0
 16 19  1  0  0  0  0
 16 51  1  6  0  0  0
 17 18  2  0  0  0  0
 17 23  1  0  0  0  0
 19 20  1  0  0  0  0
 19 52  1  0  0  0  0
 19 53  1  0  0  0  0
 20 21  1  0  0  0  0
 20 22  1  0  0  0  0
 20 54  1  0  0  0  0
 21 55  1  0  0  0  0
 21 56  1  0  0  0  0
 21 57  1  0  0  0  0
 22 58  1  0  0  0  0
 22 59  1  0  0  0  0
 22 60  1  0  0  0  0
 23 24  1  0  0  0  0
 23 61  1  0  0  0  0
 24 25  1  0  0  0  0
 24 27  1  0  0  0  0
 24 62  1  6  0  0  0
 25 26  2  0  0  0  0
 25 37  1  0  0  0  0
 27 28  1  0  0  0  0
 27 63  1  0  0  0  0
 27 64  1  0  0  0  0
 28 29  2  0  0  0  0
 28 30  1  0  0  0  0
 29 31  1  0  0  0  0
 29 65  1  0  0  0  0
 30 32  2  0  0  0  0
 30 33  1  0  0  0  0
 31 32  1  0  0  0  0
 31 66  1  0  0  0  0
 32 34  1  0  0  0  0
 33 35  2  0  0  0  0
 33 67  1  0  0  0  0
 34 36  2  0  0  0  0
 34 68  1  0  0  0  0
 35 36  1  0  0  0  0
 35 69  1  0  0  0  0
 36 70  1  0  0  0  0
M  END
$$$$
