RMSD_TEST/ORIGINAL_PDBS/ligand4TMN.pdb
 OpenBabel06251311573D

 69 70  0  0  1  0  0  0  0  0999 V2000
   52.6226   13.3786   -6.1873 C   0  0  0  0  0  0  0  0  0  0  0  0
   51.5963   14.0646   -6.5190 O   0  0  0  0  0  0  0  0  0  0  0  0
   53.3331   12.5214   -7.0007 O   0  0  0  0  0  0  0  0  0  0  0  0
   53.2496   12.6254   -8.4314 C   0  0  0  0  0  0  0  0  0  0  0  0
   53.3456   11.1993   -8.8429 C   0  0  0  0  0  0  0  0  0  0  0  0
   53.9292   10.1235   -8.1650 C   0  0  0  0  0  0  0  0  0  0  0  0
   53.9108    8.7872   -8.6443 C   0  0  0  0  0  0  0  0  0  0  0  0
   53.2967    8.4381   -9.7697 C   0  0  0  0  0  0  0  0  0  0  0  0
   52.7800    9.5188  -10.3637 C   0  0  0  0  0  0  0  0  0  0  0  0
   52.7332   10.8778   -9.9916 C   0  0  0  0  0  0  0  0  0  0  0  0
   53.2375   13.4034   -4.9949 N   0  0  0  0  0  0  0  0  0  0  0  0
   52.8167   14.3476   -3.9221 C   0  0  2  0  0  0  0  0  0  0  0  0
   53.5716   15.7787   -4.2556 P   0  0  1  0  0  0  0  0  0  0  0  0
   55.1408   15.6354   -4.2152 O   0  0  0  0  0  0  0  0  0  0  0  0
   53.0616   16.4356   -5.6057 O   0  0  0  0  0  0  0  0  0  0  0  0
   53.3687   13.7494   -2.6717 C   0  0  0  0  0  0  0  0  0  0  0  0
   52.5982   12.4645   -2.4478 C   0  0  0  0  0  0  0  0  0  0  0  0
   51.3154   12.5899   -1.8992 C   0  0  0  0  0  0  0  0  0  0  0  0
   53.1074   11.2482   -2.8282 C   0  0  0  0  0  0  0  0  0  0  0  0
   50.5245   11.4551   -1.6783 C   0  0  0  0  0  0  0  0  0  0  0  0
   52.3362   10.0979   -2.6059 C   0  0  0  0  0  0  0  0  0  0  0  0
   51.0405   10.2121   -2.0237 C   0  0  0  0  0  0  0  0  0  0  0  0
   52.8986   16.8681   -2.8539 N   0  0  0  0  0  0  0  0  0  0  0  0
   53.7153   18.0471   -2.5329 C   0  0  2  0  0  0  0  0  0  0  0  0
   54.8662   17.7999   -1.5442 C   0  0  0  0  0  0  0  0  0  0  0  0
   55.9567   18.3695   -1.6690 O   0  0  0  0  0  0  0  0  0  0  0  0
   52.8872   19.1962   -1.9442 C   0  0  0  0  0  0  0  0  0  0  0  0
   53.6946   20.4455   -1.6785 C   0  0  0  0  0  0  0  0  0  0  0  0
   54.0604   21.1394   -3.0033 C   0  0  0  0  0  0  0  0  0  0  0  0
   52.7152   21.2117   -0.8153 C   0  0  0  0  0  0  0  0  0  0  0  0
   54.5886   17.0094   -0.5262 N   0  0  0  0  0  0  0  0  0  0  0  0
   55.5164   16.6758    0.5735 C   0  0  2  0  0  0  0  0  0  0  0  0
   55.5981   15.1420    0.7760 C   0  0  0  0  0  0  0  0  0  0  0  0
   54.7411   14.3883    0.2697 O   0  0  0  0  0  0  0  0  0  0  0  0
   55.0256   17.3581    1.8374 C   0  0  0  0  0  0  0  0  0  0  0  0
   56.5525   14.5096    1.3583 O   0  0  0  0  0  0  0  0  0  0  0  0
   52.3201   13.0581   -8.7377 H   0  0  0  0  0  0  0  0  0  0  0  0
   53.9984   13.2543   -8.8659 H   0  0  0  0  0  0  0  0  0  0  0  0
   54.3996   10.3120   -7.2660 H   0  0  0  0  0  0  0  0  0  0  0  0
   54.3936    8.0579   -8.0966 H   0  0  0  0  0  0  0  0  0  0  0  0
   53.2285    7.4742  -10.1322 H   0  0  0  0  0  0  0  0  0  0  0  0
   52.3280    9.3196  -11.2697 H   0  0  0  0  0  0  0  0  0  0  0  0
   52.2547   11.5854  -10.5707 H   0  0  0  0  0  0  0  0  0  0  0  0
   53.9834   12.7838   -4.8251 H   0  0  0  0  0  0  0  0  0  0  0  0
   51.7617   14.5077   -3.8424 H   0  0  0  0  0  0  0  0  0  0  0  0
   53.3798   15.9143   -6.3593 H   0  0  0  0  0  0  0  0  0  0  0  0
   53.2275   14.4161   -1.8468 H   0  0  0  0  0  0  0  0  0  0  0  0
   54.4197   13.5666   -2.7556 H   0  0  0  0  0  0  0  0  0  0  0  0
   50.9508   13.5243   -1.6562 H   0  0  0  0  0  0  0  0  0  0  0  0
   54.0384   11.1812   -3.2685 H   0  0  0  0  0  0  0  0  0  0  0  0
   49.5810   11.5402   -1.2689 H   0  0  0  0  0  0  0  0  0  0  0  0
   52.7067    9.1699   -2.8637 H   0  0  0  0  0  0  0  0  0  0  0  0
   50.4793    9.3622   -1.8567 H   0  0  0  0  0  0  0  0  0  0  0  0
   51.9694   17.1913   -3.1234 H   0  0  0  0  0  0  0  0  0  0  0  0
   54.1253   18.2998   -3.4883 H   0  0  0  0  0  0  0  0  0  0  0  0
   52.4589   18.8668   -1.0208 H   0  0  0  0  0  0  0  0  0  0  0  0
   52.1421   19.4509   -2.6687 H   0  0  0  0  0  0  0  0  0  0  0  0
   54.6467   20.3142   -1.2082 H   0  0  0  0  0  0  0  0  0  0  0  0
   53.1699   21.3235   -3.5672 H   0  0  0  0  0  0  0  0  0  0  0  0
   54.7157   20.5087   -3.5672 H   0  0  0  0  0  0  0  0  0  0  0  0
   54.5498   22.0680   -2.7963 H   0  0  0  0  0  0  0  0  0  0  0  0
   51.7849   21.3121   -1.3344 H   0  0  0  0  0  0  0  0  0  0  0  0
   53.1113   22.1826   -0.6023 H   0  0  0  0  0  0  0  0  0  0  0  0
   52.5571   20.6821    0.1010 H   0  0  0  0  0  0  0  0  0  0  0  0
   53.6897   16.6090   -0.4967 H   0  0  0  0  0  0  0  0  0  0  0  0
   56.5006   17.0204    0.3340 H   0  0  0  0  0  0  0  0  0  0  0  0
   54.0414   17.0096    2.0716 H   0  0  0  0  0  0  0  0  0  0  0  0
   55.0022   18.4170    1.6850 H   0  0  0  0  0  0  0  0  0  0  0  0
   55.6871   17.1287    2.6464 H   0  0  0  0  0  0  0  0  0  0  0  0
  1  2  2  0  0  0  0
  1  3  1  0  0  0  0
  1 11  1  0  0  0  0
  3  4  1  0  0  0  0
  4  5  1  0  0  0  0
  4 37  1  0  0  0  0
  4 38  1  0  0  0  0
  5  6  2  0  0  0  0
  5 10  1  0  0  0  0
  6  7  1  0  0  0  0
  6 39  1  0  0  0  0
  7  8  2  0  0  0  0
  7 40  1  0  0  0  0
  8  9  1  0  0  0  0
  8 41  1  0  0  0  0
  9 10  2  0  0  0  0
  9 42  1  0  0  0  0
 10 43  1  0  0  0  0
 11 12  1  0  0  0  0
 11 44  1  0  0  0  0
 12 13  1  0  0  0  0
 12 16  1  0  0  0  0
 12 45  1  1  0  0  0
 13 14  2  1  0  0  0
 13 15  1  0  0  0  0
 13 23  1  0  0  0  0
 15 46  1  0  0  0  0
 16 17  1  0  0  0  0
 16 47  1  0  0  0  0
 16 48  1  0  0  0  0
 17 18  2  0  0  0  0
 17 19  1  0  0  0  0
 18 20  1  0  0  0  0
 18 49  1  0  0  0  0
 19 21  2  0  0  0  0
 19 50  1  0  0  0  0
 20 22  2  0  0  0  0
 20 51  1  0  0  0  0
 21 22  1  0  0  0  0
 21 52  1  0  0  0  0
 22 53  1  0  0  0  0
 23 24  1  0  0  0  0
 23 54  1  0  0  0  0
 24 25  1  0  0  0  0
 24 27  1  0  0  0  0
 24 55  1  6  0  0  0
 25 26  2  0  0  0  0
 25 31  1  0  0  0  0
 27 28  1  0  0  0  0
 27 56  1  0  0  0  0
 27 57  1  0  0  0  0
 28 29  1  0  0  0  0
 28 30  1  0  0  0  0
 28 58  1  0  0  0  0
 29 59  1  0  0  0  0
 29 60  1  0  0  0  0
 29 61  1  0  0  0  0
 30 62  1  0  0  0  0
 30 63  1  0  0  0  0
 30 64  1  0  0  0  0
 31 32  1  0  0  0  0
 31 65  1  0  0  0  0
 32 33  1  0  0  0  0
 32 35  1  0  0  0  0
 32 66  1  6  0  0  0
 33 34  2  0  0  0  0
 33 36  1  0  0  0  0
 35 67  1  0  0  0  0
 35 68  1  0  0  0  0
 35 69  1  0  0  0  0
M  END
$$$$
