RMSD_TEST/ORIGINAL_PDBS/ligand1TLP.pdb
 OpenBabel06251311263D

 70 72  0  0  1  0  0  0  0  0999 V2000
   51.5966   17.8945   -7.4521 C   0  0  1  0  0  0  0  0  0  0  0  0
   51.5259   19.0956   -6.7516 O   0  0  0  0  0  0  0  0  0  0  0  0
   50.4482   17.2206   -6.7751 C   0  0  2  0  0  0  0  0  0  0  0  0
   50.0410   15.9449   -7.4132 O   0  0  0  0  0  0  0  0  0  0  0  0
   49.2732   18.0865   -7.0244 C   0  0  2  0  0  0  0  0  0  0  0  0
   48.2987   17.4351   -6.2303 O   0  0  0  0  0  0  0  0  0  0  0  0
   49.0155   17.9948   -8.5178 C   0  0  1  0  0  0  0  0  0  0  0  0
   47.7360   18.4551   -8.8449 O   0  0  0  0  0  0  0  0  0  0  0  0
   50.1283   18.7539   -9.2585 C   0  0  1  0  0  0  0  0  0  0  0  0
   51.3768   18.0967   -8.8706 O   0  0  0  0  0  0  0  0  0  0  0  0
   49.9587   18.9227  -10.7746 C   0  0  0  0  0  0  0  0  0  0  0  0
   52.4119   19.6371   -5.6402 P   0  0  1  0  0  0  0  0  0  0  0  0
   53.9380   19.5522   -5.8852 O   0  0  0  0  0  0  0  0  0  0  0  0
   52.1130   21.0136   -5.2731 O   0  0  0  0  0  0  0  0  0  0  0  0
   52.2041   18.7723   -4.5278 N   0  0  0  0  0  0  0  0  0  0  0  0
   53.1660   18.4042   -3.4993 C   0  0  2  0  0  0  0  0  0  0  0  0
   53.7609   17.0279   -3.5735 C   0  0  0  0  0  0  0  0  0  0  0  0
   54.8892   16.9344   -3.1113 O   0  0  0  0  0  0  0  0  0  0  0  0
   52.6337   18.6115   -2.0902 C   0  0  0  0  0  0  0  0  0  0  0  0
   53.6619   18.2169   -0.9577 C   0  0  0  0  0  0  0  0  0  0  0  0
   54.9720   19.0289   -0.8382 C   0  0  0  0  0  0  0  0  0  0  0  0
   53.0455   18.2567    0.4469 C   0  0  0  0  0  0  0  0  0  0  0  0
   52.9934   16.0197   -4.1250 N   0  0  0  0  0  0  0  0  0  0  0  0
   53.3934   14.6198   -4.3600 C   0  0  2  0  0  0  0  0  0  0  0  0
   52.3933   13.8272   -5.2401 C   0  0  0  0  0  0  0  0  0  0  0  0
   51.3011   14.4533   -5.3859 O   0  0  0  0  0  0  0  0  0  0  0  0
   53.7745   13.9892   -3.0007 C   0  0  0  0  0  0  0  0  0  0  0  0
   52.6061   13.6989   -2.1532 C   0  0  0  0  0  0  0  0  0  0  0  0
   51.9559   14.5931   -1.3629 C   0  0  0  0  0  0  0  0  0  0  0  0
   51.9256   12.4535   -2.0182 C   0  0  0  0  0  0  0  0  0  0  0  0
   50.8997   14.0051   -0.7355 N   0  0  0  0  0  0  0  0  0  0  0  0
   50.8575   12.6923   -1.1030 C   0  0  0  0  0  0  0  0  0  0  0  0
   52.1169   11.1771   -2.5750 C   0  0  0  0  0  0  0  0  0  0  0  0
   49.9586   11.7120   -0.7267 C   0  0  0  0  0  0  0  0  0  0  0  0
   51.2093   10.2048   -2.2054 C   0  0  0  0  0  0  0  0  0  0  0  0
   50.1671   10.4651   -1.2829 C   0  0  0  0  0  0  0  0  0  0  0  0
   52.7187   12.6593   -5.7184 O   0  0  0  0  0  0  0  0  0  0  0  0
   52.5271   17.3666   -7.4308 H   0  0  0  0  0  0  0  0  0  0  0  0
   50.7373   17.0507   -5.7590 H   0  0  0  0  0  0  0  0  0  0  0  0
   49.7815   16.1117   -8.3329 H   0  0  0  0  0  0  0  0  0  0  0  0
   49.3339   19.1276   -6.7848 H   0  0  0  0  0  0  0  0  0  0  0  0
   48.2643   16.4951   -6.4672 H   0  0  0  0  0  0  0  0  0  0  0  0
   49.0401   16.9711   -8.8284 H   0  0  0  0  0  0  0  0  0  0  0  0
   47.6512   19.3860   -8.5855 H   0  0  0  0  0  0  0  0  0  0  0  0
   50.1051   19.7816   -8.9614 H   0  0  0  0  0  0  0  0  0  0  0  0
   49.9603   17.9607  -11.2430 H   0  0  0  0  0  0  0  0  0  0  0  0
   50.7664   19.5088  -11.1608 H   0  0  0  0  0  0  0  0  0  0  0  0
   49.0312   19.4164  -10.9769 H   0  0  0  0  0  0  0  0  0  0  0  0
   52.2585   21.5913   -6.0386 H   0  0  0  0  0  0  0  0  0  0  0  0
   51.4237   19.1865   -4.0182 H   0  0  0  0  0  0  0  0  0  0  0  0
   53.9604   19.0861   -3.7199 H   0  0  0  0  0  0  0  0  0  0  0  0
   51.7539   18.0145   -1.9704 H   0  0  0  0  0  0  0  0  0  0  0  0
   52.4358   19.6574   -1.9818 H   0  0  0  0  0  0  0  0  0  0  0  0
   53.9138   17.2337   -1.2963 H   0  0  0  0  0  0  0  0  0  0  0  0
   54.7482   20.0193   -0.5004 H   0  0  0  0  0  0  0  0  0  0  0  0
   55.4499   19.0777   -1.7943 H   0  0  0  0  0  0  0  0  0  0  0  0
   55.6247   18.5518   -0.1373 H   0  0  0  0  0  0  0  0  0  0  0  0
   52.8233   19.2697    0.7104 H   0  0  0  0  0  0  0  0  0  0  0  0
   53.7389   17.8486    1.1524 H   0  0  0  0  0  0  0  0  0  0  0  0
   52.1446   17.6794    0.4576 H   0  0  0  0  0  0  0  0  0  0  0  0
   52.0773   16.2632   -4.3907 H   0  0  0  0  0  0  0  0  0  0  0  0
   54.2682   14.5805   -4.9749 H   0  0  0  0  0  0  0  0  0  0  0  0
   54.4149   14.6681   -2.4774 H   0  0  0  0  0  0  0  0  0  0  0  0
   54.2607   13.0582   -3.2049 H   0  0  0  0  0  0  0  0  0  0  0  0
   52.2258   15.5832   -1.2531 H   0  0  0  0  0  0  0  0  0  0  0  0
   50.2733   14.4518   -0.1212 H   0  0  0  0  0  0  0  0  0  0  0  0
   52.8935   10.9776   -3.2247 H   0  0  0  0  0  0  0  0  0  0  0  0
   49.1825   11.8995   -0.0729 H   0  0  0  0  0  0  0  0  0  0  0  0
   51.2929    9.2605   -2.6134 H   0  0  0  0  0  0  0  0  0  0  0  0
   49.5379    9.6921   -1.0155 H   0  0  0  0  0  0  0  0  0  0  0  0
  1  2  1  0  0  0  0
  1  3  1  0  0  0  0
  1 10  1  0  0  0  0
  1 38  1  1  0  0  0
  3  4  1  0  0  0  0
  3  5  1  0  0  0  0
  3 39  1  1  0  0  0
  4 40  1  0  0  0  0
  5  6  1  0  0  0  0
  5  7  1  0  0  0  0
  5 41  1  1  0  0  0
  6 42  1  0  0  0  0
  7  8  1  0  0  0  0
  7  9  1  0  0  0  0
  7 43  1  6  0  0  0
  8 44  1  0  0  0  0
  9 10  1  0  0  0  0
  9 11  1  0  0  0  0
  9 45  1  1  0  0  0
 11 46  1  0  0  0  0
 11 47  1  0  0  0  0
 11 48  1  0  0  0  0
 12  2  1  6  0  0  0
 12 13  2  0  0  0  0
 12 14  1  0  0  0  0
 12 15  1  0  0  0  0
 14 49  1  0  0  0  0
 15 16  1  0  0  0  0
 15 50  1  0  0  0  0
 16 17  1  0  0  0  0
 16 19  1  0  0  0  0
 16 51  1  6  0  0  0
 17 18  2  0  0  0  0
 17 23  1  0  0  0  0
 19 20  1  0  0  0  0
 19 52  1  0  0  0  0
 19 53  1  0  0  0  0
 20 21  1  0  0  0  0
 20 22  1  0  0  0  0
 20 54  1  0  0  0  0
 21 55  1  0  0  0  0
 21 56  1  0  0  0  0
 21 57  1  0  0  0  0
 22 58  1  0  0  0  0
 22 59  1  0  0  0  0
 22 60  1  0  0  0  0
 23 24  1  0  0  0  0
 23 61  1  0  0  0  0
 24 25  1  0  0  0  0
 24 27  1  0  0  0  0
 24 62  1  6  0  0  0
 25 26  2  0  0  0  0
 25 37  1  0  0  0  0
 27 28  1  0  0  0  0
 27 63  1  0  0  0  0
 27 64  1  0  0  0  0
 28 29  2  0  0  0  0
 28 30  1  0  0  0  0
 29 31  1  0  0  0  0
 29 65  1  0  0  0  0
 30 32  2  0  0  0  0
 30 33  1  0  0  0  0
 31 32  1  0  0  0  0
 31 66  1  0  0  0  0
 32 34  1  0  0  0  0
 33 35  2  0  0  0  0
 33 67  1  0  0  0  0
 34 36  2  0  0  0  0
 34 68  1  0  0  0  0
 35 36  1  0  0  0  0
 35 69  1  0  0  0  0
 36 70  1  0  0  0  0
M  END
$$$$
