RMSD_TEST/ORIGINAL_PDBS/ligand1TMN.pdb
 OpenBabel06251311553D

 69 71  0  0  1  0  0  0  0  0999 V2000
   51.9366   18.2972   -5.7513 C   0  0  1  0  0  0  0  0  0  0  0  0
   50.6946   18.3522   -6.6591 C   0  0  0  0  0  0  0  0  0  0  0  0
   50.2214   16.9121   -6.8950 C   0  0  0  0  0  0  0  0  0  0  0  0
   48.9648   16.6932   -7.7646 C   0  0  0  0  0  0  0  0  0  0  0  0
   49.0652   16.6411   -9.1494 C   0  0  0  0  0  0  0  0  0  0  0  0
   47.7654   16.4244   -7.1528 C   0  0  0  0  0  0  0  0  0  0  0  0
   47.9403   16.3600   -9.9487 C   0  0  0  0  0  0  0  0  0  0  0  0
   46.6270   16.1545   -7.9333 C   0  0  0  0  0  0  0  0  0  0  0  0
   46.7029   16.1301   -9.3404 C   0  0  0  0  0  0  0  0  0  0  0  0
   52.8963   19.2715   -6.3935 C   0  0  0  0  0  0  0  0  0  0  0  0
   53.7817   18.8756   -7.1805 O   0  0  0  0  0  0  0  0  0  0  0  0
   52.7280   20.4827   -6.2283 O   0  0  0  0  0  0  0  0  0  0  0  0
   51.7061   18.4426   -4.2618 N   0  0  0  0  0  0  0  0  0  0  0  0
   52.9317   18.2804   -3.4412 C   0  0  2  0  0  0  0  0  0  0  0  0
   53.7769   17.0279   -3.7137 C   0  0  0  0  0  0  0  0  0  0  0  0
   55.0400   17.0705   -3.6976 O   0  0  0  0  0  0  0  0  0  0  0  0
   52.5548   18.2700   -1.9585 C   0  0  0  0  0  0  0  0  0  0  0  0
   53.8312   18.3767   -1.1456 C   0  0  0  0  0  0  0  0  0  0  0  0
   54.5817   19.6603   -1.4931 C   0  0  0  0  0  0  0  0  0  0  0  0
   53.4383   18.3207    0.3244 C   0  0  0  0  0  0  0  0  0  0  0  0
   53.0386   15.9415   -3.9090 N   0  0  0  0  0  0  0  0  0  0  0  0
   53.6144   14.6129   -4.1755 C   0  0  2  0  0  0  0  0  0  0  0  0
   52.7882   13.7177   -5.0924 C   0  0  0  0  0  0  0  0  0  0  0  0
   51.7761   14.2383   -5.6585 O   0  0  0  0  0  0  0  0  0  0  0  0
   54.0516   13.8845   -2.8706 C   0  0  0  0  0  0  0  0  0  0  0  0
   52.8083   13.4309   -2.1096 C   0  0  1  0  0  0  0  0  0  0  0  0
   51.6850   14.1044   -1.8691 C   0  0  0  0  0  0  0  0  0  0  0  0
   52.5882   12.1522   -1.6088 C   0  0  0  0  0  0  0  0  0  0  0  0
   50.6825   13.2051   -1.4526 N   0  0  0  0  0  0  0  0  0  0  0  0
   51.2026   12.0442   -1.3794 C   0  0  0  0  0  0  0  0  0  0  0  0
   53.4718   11.1007   -1.3672 C   0  0  0  0  0  0  0  0  0  0  0  0
   50.6013   10.8533   -1.0049 C   0  0  0  0  0  0  0  0  0  0  0  0
   52.8906    9.9060   -0.9055 C   0  0  0  0  0  0  0  0  0  0  0  0
   51.4862    9.7787   -0.7602 C   0  0  0  0  0  0  0  0  0  0  0  0
   53.3096   12.6462   -5.5681 O   0  0  0  0  0  0  0  0  0  0  0  0
   52.3482   17.3103   -5.7117 H   0  0  0  0  0  0  0  0  0  0  0  0
   50.9463   18.8101   -7.5928 H   0  0  0  0  0  0  0  0  0  0  0  0
   49.9202   18.9290   -6.1980 H   0  0  0  0  0  0  0  0  0  0  0  0
   50.0230   16.4817   -5.9357 H   0  0  0  0  0  0  0  0  0  0  0  0
   51.0140   16.4596   -7.4536 H   0  0  0  0  0  0  0  0  0  0  0  0
   49.9783   16.8112   -9.5992 H   0  0  0  0  0  0  0  0  0  0  0  0
   47.6994   16.4205   -6.1229 H   0  0  0  0  0  0  0  0  0  0  0  0
   48.0289   16.3240  -10.9763 H   0  0  0  0  0  0  0  0  0  0  0  0
   45.7236   15.9718   -7.4693 H   0  0  0  0  0  0  0  0  0  0  0  0
   45.8622   15.9462   -9.9099 H   0  0  0  0  0  0  0  0  0  0  0  0
   51.0302   17.7359   -3.9717 H   0  0  0  0  0  0  0  0  0  0  0  0
   51.3720   19.3938   -4.1070 H   0  0  0  0  0  0  0  0  0  0  0  0
   53.5418   19.1141   -3.7200 H   0  0  0  0  0  0  0  0  0  0  0  0
   52.0481   17.3583   -1.7198 H   0  0  0  0  0  0  0  0  0  0  0  0
   51.9046   19.0902   -1.7361 H   0  0  0  0  0  0  0  0  0  0  0  0
   54.4991   17.5708   -1.3677 H   0  0  0  0  0  0  0  0  0  0  0  0
   53.9571   20.5048   -1.2895 H   0  0  0  0  0  0  0  0  0  0  0  0
   54.8424   19.6513   -2.5308 H   0  0  0  0  0  0  0  0  0  0  0  0
   55.4716   19.7242   -0.9024 H   0  0  0  0  0  0  0  0  0  0  0  0
   52.7705   19.1267    0.5460 H   0  0  0  0  0  0  0  0  0  0  0  0
   54.3152   18.4069    0.9315 H   0  0  0  0  0  0  0  0  0  0  0  0
   52.9533   17.3891    0.5286 H   0  0  0  0  0  0  0  0  0  0  0  0
   52.0587   16.0288   -3.8738 H   0  0  0  0  0  0  0  0  0  0  0  0
   54.4985   14.8197   -4.7417 H   0  0  0  0  0  0  0  0  0  0  0  0
   54.6207   14.5541   -2.2601 H   0  0  0  0  0  0  0  0  0  0  0  0
   54.6529   13.0344   -3.1170 H   0  0  0  0  0  0  0  0  0  0  0  0
   53.7005   13.9861   -2.3108 H   0  0  0  0  0  0  0  0  0  0  0  0
   51.8593   14.8269   -1.0993 H   0  0  0  0  0  0  0  0  0  0  0  0
   51.3694   14.6050   -2.7606 H   0  0  0  0  0  0  0  0  0  0  0  0
   49.7459   13.4337   -1.2534 H   0  0  0  0  0  0  0  0  0  0  0  0
   54.4886   11.1933   -1.5177 H   0  0  0  0  0  0  0  0  0  0  0  0
   49.5780   10.7575   -0.9111 H   0  0  0  0  0  0  0  0  0  0  0  0
   53.4983    9.1064   -0.6679 H   0  0  0  0  0  0  0  0  0  0  0  0
   51.0963    8.8698   -0.4654 H   0  0  0  0  0  0  0  0  0  0  0  0
  1 13  1  0  0  0  0
  1 10  1  0  0  0  0
  1  2  1  0  0  0  0
  1 36  1  6  0  0  0
  2  3  1  0  0  0  0
  2 37  1  0  0  0  0
  2 38  1  0  0  0  0
  3  4  1  0  0  0  0
  3 39  1  0  0  0  0
  3 40  1  0  0  0  0
  4  6  2  0  0  0  0
  4  5  1  0  0  0  0
  5  7  2  0  0  0  0
  5 41  1  0  0  0  0
  6  8  1  0  0  0  0
  6 42  1  0  0  0  0
  7  9  1  0  0  0  0
  7 43  1  0  0  0  0
  8  9  2  0  0  0  0
  8 44  1  0  0  0  0
  9 45  1  0  0  0  0
 10 12  2  0  0  0  0
 10 11  1  0  0  0  0
 13 14  1  0  0  0  0
 13 46  1  0  0  0  0
 13 47  1  0  0  0  0
 14 15  1  0  0  0  0
 14 17  1  0  0  0  0
 14 48  1  6  0  0  0
 15 21  1  0  0  0  0
 15 16  2  0  0  0  0
 17 18  1  0  0  0  0
 17 49  1  0  0  0  0
 17 50  1  0  0  0  0
 18 19  1  0  0  0  0
 18 20  1  0  0  0  0
 18 51  1  0  0  0  0
 19 52  1  0  0  0  0
 19 53  1  0  0  0  0
 19 54  1  0  0  0  0
 20 55  1  0  0  0  0
 20 56  1  0  0  0  0
 20 57  1  0  0  0  0
 21 22  1  0  0  0  0
 21 58  1  0  0  0  0
 22 25  1  0  0  0  0
 22 23  1  0  0  0  0
 22 59  1  6  0  0  0
 23 35  2  0  0  0  0
 23 24  1  0  0  0  0
 25 26  1  0  0  0  0
 25 60  1  0  0  0  0
 25 61  1  0  0  0  0
 26 27  1  0  0  0  0
 26 28  1  0  0  0  0
 26 62  1  1  0  0  0
 27 29  1  0  0  0  0
 27 63  1  0  0  0  0
 27 64  1  0  0  0  0
 28 30  2  0  0  0  0
 28 31  1  0  0  0  0
 29 30  1  0  0  0  0
 29 65  1  0  0  0  0
 30 32  1  0  0  0  0
 31 33  2  0  0  0  0
 31 66  1  0  0  0  0
 32 34  2  0  0  0  0
 32 67  1  0  0  0  0
 33 34  1  0  0  0  0
 33 68  1  0  0  0  0
 34 69  1  0  0  0  0
M  END
$$$$
