RMSD_TEST/ORIGINAL_PDBS/ligand1THL.pdb
 OpenBabel06251312473D

 65 68  0  0  1  0  0  0  0  0999 V2000
   51.2604   19.7544   -5.9575 C   0  0  1  0  0  0  0  0  0  0  0  0
   50.1030   19.1623   -6.7589 C   0  0  0  0  0  0  0  0  0  0  0  0
   50.2280   17.7081   -6.8827 C   0  0  0  0  0  0  0  0  0  0  0  0
   49.0840   17.0809   -7.6149 C   0  0  0  0  0  0  0  0  0  0  0  0
   49.2944   16.7096   -8.9372 C   0  0  0  0  0  0  0  0  0  0  0  0
   47.9130   16.6698   -6.9694 C   0  0  0  0  0  0  0  0  0  0  0  0
   48.3195   16.0463   -9.6637 C   0  0  0  0  0  0  0  0  0  0  0  0
   46.9419   15.9517   -7.6645 C   0  0  0  0  0  0  0  0  0  0  0  0
   47.1686   15.5818   -8.9799 C   0  0  0  0  0  0  0  0  0  0  0  0
   51.9201   20.6956   -6.9054 C   0  0  0  0  0  0  0  0  0  0  0  0
   51.2386   21.6344   -7.3526 O   0  0  0  0  0  0  0  0  0  0  0  0
   53.0938   20.5690   -7.3120 O   0  0  0  0  0  0  0  0  0  0  0  0
   50.6519   20.4816   -4.7405 C   0  0  0  0  0  0  0  0  0  0  0  0
   51.7573   21.0151   -3.7803 C   0  0  0  0  0  0  0  0  0  0  0  0
   52.2646   22.4166   -4.1859 C   0  0  0  0  0  0  0  0  0  0  0  0
   51.0199   21.3284   -2.4599 C   0  0  0  0  0  0  0  0  0  0  0  0
   52.5785   23.1482   -2.8773 C   0  0  0  0  0  0  0  0  0  0  0  0
   51.5302   22.6358   -1.8621 C   0  0  0  0  0  0  0  0  0  0  0  0
   52.8898   20.0132   -3.5150 C   0  0  0  0  0  0  0  0  0  0  0  0
   54.0931   20.3297   -3.5171 O   0  0  0  0  0  0  0  0  0  0  0  0
   52.5061   18.7857   -3.2366 N   0  0  0  0  0  0  0  0  0  0  0  0
   53.4607   17.7260   -2.9711 C   0  0  2  0  0  0  0  0  0  0  0  0
   53.1282   16.4249   -3.6638 C   0  0  0  0  0  0  0  0  0  0  0  0
   51.9860   16.3000   -4.1909 O   0  0  0  0  0  0  0  0  0  0  0  0
   53.7446   17.5770   -1.4617 C   0  0  0  0  0  0  0  0  0  0  0  0
   52.5457   17.1174   -0.7160 C   0  0  0  0  0  0  0  0  0  0  0  0
   51.4641   17.8666   -0.3948 C   0  0  0  0  0  0  0  0  0  0  0  0
   52.2097   15.7686   -0.4594 C   0  0  0  0  0  0  0  0  0  0  0  0
   50.5220   17.0683    0.1977 N   0  0  0  0  0  0  0  0  0  0  0  0
   50.9363   15.7717    0.1271 C   0  0  0  0  0  0  0  0  0  0  0  0
   52.8172   14.5479   -0.7644 C   0  0  0  0  0  0  0  0  0  0  0  0
   50.3138   14.5741    0.5025 C   0  0  0  0  0  0  0  0  0  0  0  0
   52.1940   13.3710   -0.4216 C   0  0  0  0  0  0  0  0  0  0  0  0
   50.9499   13.3838    0.2117 C   0  0  0  0  0  0  0  0  0  0  0  0
   54.0229   15.5221   -3.6710 O   0  0  0  0  0  0  0  0  0  0  0  0
   51.9671   19.0416   -5.5869 H   0  0  0  0  0  0  0  0  0  0  0  0
   50.0989   19.5959   -7.7370 H   0  0  0  0  0  0  0  0  0  0  0  0
   49.1907   19.3794   -6.2437 H   0  0  0  0  0  0  0  0  0  0  0  0
   50.2766   17.2856   -5.9008 H   0  0  0  0  0  0  0  0  0  0  0  0
   51.1150   17.5110   -7.4479 H   0  0  0  0  0  0  0  0  0  0  0  0
   50.1959   16.9326   -9.3874 H   0  0  0  0  0  0  0  0  0  0  0  0
   47.7677   16.8994   -5.9738 H   0  0  0  0  0  0  0  0  0  0  0  0
   48.4287   15.8940  -10.6785 H   0  0  0  0  0  0  0  0  0  0  0  0
   46.0563   15.6962   -7.2004 H   0  0  0  0  0  0  0  0  0  0  0  0
   46.4968   14.9657   -9.4637 H   0  0  0  0  0  0  0  0  0  0  0  0
   50.0264   19.7986   -4.2047 H   0  0  0  0  0  0  0  0  0  0  0  0
   50.0869   21.3171   -5.0976 H   0  0  0  0  0  0  0  0  0  0  0  0
   51.5094   22.9412   -4.7331 H   0  0  0  0  0  0  0  0  0  0  0  0
   53.1272   22.3536   -4.8159 H   0  0  0  0  0  0  0  0  0  0  0  0
   51.1892   20.5331   -1.7644 H   0  0  0  0  0  0  0  0  0  0  0  0
   49.9734   21.4245   -2.6616 H   0  0  0  0  0  0  0  0  0  0  0  0
   52.4875   24.2063   -3.0082 H   0  0  0  0  0  0  0  0  0  0  0  0
   53.5788   22.9622   -2.5461 H   0  0  0  0  0  0  0  0  0  0  0  0
   51.9818   22.4634   -0.9076 H   0  0  0  0  0  0  0  0  0  0  0  0
   50.7428   23.3423   -1.7015 H   0  0  0  0  0  0  0  0  0  0  0  0
   51.5436   18.5805   -3.2078 H   0  0  0  0  0  0  0  0  0  0  0  0
   54.3843   18.0283   -3.4190 H   0  0  0  0  0  0  0  0  0  0  0  0
   54.0520   18.5251   -1.0722 H   0  0  0  0  0  0  0  0  0  0  0  0
   54.5131   16.8425   -1.3396 H   0  0  0  0  0  0  0  0  0  0  0  0
   51.3653   18.8790   -0.5690 H   0  0  0  0  0  0  0  0  0  0  0  0
   49.6828   17.3800    0.6076 H   0  0  0  0  0  0  0  0  0  0  0  0
   53.7303   14.5295   -1.2451 H   0  0  0  0  0  0  0  0  0  0  0  0
   49.4016   14.5815    0.9850 H   0  0  0  0  0  0  0  0  0  0  0  0
   52.6502   12.4700   -0.6344 H   0  0  0  0  0  0  0  0  0  0  0  0
   50.4993   12.4909    0.4660 H   0  0  0  0  0  0  0  0  0  0  0  0
  1  2  1  0  0  0  0
  1 10  1  0  0  0  0
  1 13  1  0  0  0  0
  1 36  1  1  0  0  0
  2  3  1  0  0  0  0
  2 37  1  0  0  0  0
  2 38  1  0  0  0  0
  3  4  1  0  0  0  0
  3 39  1  0  0  0  0
  3 40  1  0  0  0  0
  4  5  2  0  0  0  0
  4  6  1  0  0  0  0
  5  7  1  0  0  0  0
  5 41  1  0  0  0  0
  6  8  2  0  0  0  0
  6 42  1  0  0  0  0
  7  9  2  0  0  0  0
  7 43  1  0  0  0  0
  8  9  1  0  0  0  0
  8 44  1  0  0  0  0
  9 45  1  0  0  0  0
 10 11  2  0  0  0  0
 10 12  1  0  0  0  0
 13 14  1  0  0  0  0
 13 46  1  0  0  0  0
 13 47  1  0  0  0  0
 14 15  1  0  0  0  0
 14 16  1  0  0  0  0
 14 19  1  0  0  0  0
 15 17  1  0  0  0  0
 15 48  1  0  0  0  0
 15 49  1  0  0  0  0
 16 18  1  0  0  0  0
 16 50  1  0  0  0  0
 16 51  1  0  0  0  0
 17 18  1  0  0  0  0
 17 52  1  0  0  0  0
 17 53  1  0  0  0  0
 18 54  1  0  0  0  0
 18 55  1  0  0  0  0
 19 20  2  0  0  0  0
 19 21  1  0  0  0  0
 21 22  1  0  0  0  0
 21 56  1  0  0  0  0
 22 23  1  0  0  0  0
 22 25  1  0  0  0  0
 22 57  1  6  0  0  0
 23 24  2  0  0  0  0
 23 35  1  0  0  0  0
 25 26  1  0  0  0  0
 25 58  1  0  0  0  0
 25 59  1  0  0  0  0
 26 27  2  0  0  0  0
 26 28  1  0  0  0  0
 27 29  1  0  0  0  0
 27 60  1  0  0  0  0
 28 30  2  0  0  0  0
 28 31  1  0  0  0  0
 29 30  1  0  0  0  0
 29 61  1  0  0  0  0
 30 32  1  0  0  0  0
 31 33  2  0  0  0  0
 31 62  1  0  0  0  0
 32 34  2  0  0  0  0
 32 63  1  0  0  0  0
 33 34  1  0  0  0  0
 33 64  1  0  0  0  0
 34 65  1  0  0  0  0
M  END
$$$$
