RMSD_TEST/ORIGINAL_PDBS/ligand3TMN.pdb
 OpenBabel06251311543D

 43 44  0  0  1  0  0  0  0  0999 V2000
   51.4130   20.5124   -2.9915 N   0  0  0  0  0  0  0  0  0  0  0  0
   52.4607   19.4811   -3.1957 C   0  0  2  0  0  0  0  0  0  0  0  0
   52.6982   18.9296   -4.6236 C   0  0  0  0  0  0  0  0  0  0  0  0
   53.7746   18.4462   -4.9744 O   0  0  0  0  0  0  0  0  0  0  0  0
   52.5606   18.3807   -2.1446 C   0  0  0  0  0  0  0  0  0  0  0  0
   51.4204   17.3614   -2.2312 C   0  0  0  0  0  0  0  0  0  0  0  0
   53.9792   17.7679   -2.0956 C   0  0  0  0  0  0  0  0  0  0  0  0
   51.6645   19.0038   -5.4549 N   0  0  0  0  0  0  0  0  0  0  0  0
   51.7344   18.5533   -6.8440 C   0  0  2  0  0  0  0  0  0  0  0  0
   50.8494   19.4245   -7.7145 C   0  0  0  0  0  0  0  0  0  0  0  0
   50.1148   20.2885   -7.1320 O   0  0  0  0  0  0  0  0  0  0  0  0
   51.5010   17.0612   -7.0341 C   0  0  0  0  0  0  0  0  0  0  0  0
   50.0975   16.7534   -6.7544 C   0  0  0  0  0  0  0  0  0  0  0  0
   49.5796   16.5596   -5.5276 C   0  0  0  0  0  0  0  0  0  0  0  0
   49.0365   16.6050   -7.6884 C   0  0  0  0  0  0  0  0  0  0  0  0
   48.2351   16.2929   -5.6415 N   0  0  0  0  0  0  0  0  0  0  0  0
   47.8692   16.3360   -6.9469 C   0  0  0  0  0  0  0  0  0  0  0  0
   48.9408   16.6908   -9.0845 C   0  0  0  0  0  0  0  0  0  0  0  0
   46.6205   16.1412   -7.5555 C   0  0  0  0  0  0  0  0  0  0  0  0
   47.7146   16.5015   -9.7046 C   0  0  0  0  0  0  0  0  0  0  0  0
   46.5737   16.2420   -8.9326 C   0  0  0  0  0  0  0  0  0  0  0  0
   50.9728   19.2800   -8.9546 O   0  0  0  0  0  0  0  0  0  0  0  0
   51.4470   21.1875   -3.7553 H   0  0  0  0  0  0  0  0  0  0  0  0
   51.5760   20.9921   -2.1063 H   0  0  0  0  0  0  0  0  0  0  0  0
   50.4959   20.0664   -2.9726 H   0  0  0  0  0  0  0  0  0  0  0  0
   53.2922   20.1346   -3.0335 H   0  0  0  0  0  0  0  0  0  0  0  0
   52.4163   18.8367   -1.1874 H   0  0  0  0  0  0  0  0  0  0  0  0
   51.4753   16.8433   -3.1658 H   0  0  0  0  0  0  0  0  0  0  0  0
   50.4815   17.8696   -2.1599 H   0  0  0  0  0  0  0  0  0  0  0  0
   51.5078   16.6593   -1.4286 H   0  0  0  0  0  0  0  0  0  0  0  0
   54.1938   17.2903   -3.0288 H   0  0  0  0  0  0  0  0  0  0  0  0
   54.0294   17.0472   -1.3063 H   0  0  0  0  0  0  0  0  0  0  0  0
   54.6962   18.5420   -1.9180 H   0  0  0  0  0  0  0  0  0  0  0  0
   50.8167   19.3774   -5.1219 H   0  0  0  0  0  0  0  0  0  0  0  0
   52.7463   18.6793   -7.1680 H   0  0  0  0  0  0  0  0  0  0  0  0
   52.1282   16.5126   -6.3628 H   0  0  0  0  0  0  0  0  0  0  0  0
   51.7352   16.7865   -8.0413 H   0  0  0  0  0  0  0  0  0  0  0  0
   50.1074   16.6041   -4.6420 H   0  0  0  0  0  0  0  0  0  0  0  0
   47.6299   16.0999   -4.8894 H   0  0  0  0  0  0  0  0  0  0  0  0
   49.7803   16.8942   -9.6492 H   0  0  0  0  0  0  0  0  0  0  0  0
   45.7759   15.9323   -7.0003 H   0  0  0  0  0  0  0  0  0  0  0  0
   47.6423   16.5516  -10.7329 H   0  0  0  0  0  0  0  0  0  0  0  0
   45.6666   16.1220   -9.4099 H   0  0  0  0  0  0  0  0  0  0  0  0
  1  2  1  0  0  0  0
  1 23  1  0  0  0  0
  1 24  1  0  0  0  0
  1 25  1  0  0  0  0
  2  5  1  0  0  0  0
  2 26  1  1  0  0  0
  3  4  2  0  0  0  0
  3  2  1  0  0  0  0
  5  7  1  0  0  0  0
  5  6  1  0  0  0  0
  5 27  1  0  0  0  0
  6 28  1  0  0  0  0
  6 29  1  0  0  0  0
  6 30  1  0  0  0  0
  7 31  1  0  0  0  0
  7 32  1  0  0  0  0
  7 33  1  0  0  0  0
  8  3  1  0  0  0  0
  8 34  1  0  0  0  0
  9  8  1  0  0  0  0
  9 12  1  0  0  0  0
  9 35  1  6  0  0  0
 10  9  1  0  0  0  0
 11 10  2  0  0  0  0
 12 13  1  0  0  0  0
 12 36  1  0  0  0  0
 12 37  1  0  0  0  0
 13 14  2  0  0  0  0
 14 16  1  0  0  0  0
 14 38  1  0  0  0  0
 15 13  1  0  0  0  0
 15 17  2  0  0  0  0
 16 39  1  0  0  0  0
 17 19  1  0  0  0  0
 17 16  1  0  0  0  0
 18 20  2  0  0  0  0
 18 15  1  0  0  0  0
 18 40  1  0  0  0  0
 19 41  1  0  0  0  0
 20 21  1  0  0  0  0
 20 42  1  0  0  0  0
 21 19  2  0  0  0  0
 21 43  1  0  0  0  0
 22 10  1  0  0  0  0
M  END
$$$$
