RMSD_TEST/ORIGINAL_PDBS/ligand4TMN.pdb
 OpenBabel06251311343D

 69 70  0  0  1  0  0  0  0  0999 V2000
   50.4535   20.3380   -8.6218 C   0  0  0  0  0  0  0  0  0  0  0  0
   49.9260   21.2049   -7.8446 O   0  0  0  0  0  0  0  0  0  0  0  0
   50.8103   20.5286   -9.9399 O   0  0  0  0  0  0  0  0  0  0  0  0
   51.0153   21.8510  -10.4634 C   0  0  0  0  0  0  0  0  0  0  0  0
   50.5093   21.7057  -11.8545 C   0  0  0  0  0  0  0  0  0  0  0  0
   50.4152   20.5535  -12.6425 C   0  0  0  0  0  0  0  0  0  0  0  0
   49.8615   20.5364  -13.9498 C   0  0  0  0  0  0  0  0  0  0  0  0
   49.3455   21.6182  -14.5235 C   0  0  0  0  0  0  0  0  0  0  0  0
   49.4869   22.6756  -13.7175 C   0  0  0  0  0  0  0  0  0  0  0  0
   50.0113   22.8166  -12.4165 C   0  0  0  0  0  0  0  0  0  0  0  0
   50.8102   19.0890   -8.2854 N   0  0  0  0  0  0  0  0  0  0  0  0
   50.7045   18.6011   -6.8817 C   0  0  2  0  0  0  0  0  0  0  0  0
   52.0756   19.1167   -6.1179 P   0  0  1  0  0  0  0  0  0  0  0  0
   53.3735   18.5037   -6.7692 O   0  0  0  0  0  0  0  0  0  0  0  0
   52.1494   20.6963   -6.0004 O   0  0  0  0  0  0  0  0  0  0  0  0
   50.7105   17.1146   -7.0101 C   0  0  0  0  0  0  0  0  0  0  0  0
   49.4105   16.7495   -7.6970 C   0  0  0  0  0  0  0  0  0  0  0  0
   48.2599   16.7413   -6.8983 C   0  0  0  0  0  0  0  0  0  0  0  0
   49.3570   16.5072   -9.0468 C   0  0  0  0  0  0  0  0  0  0  0  0
   47.0117   16.4357   -7.4558 C   0  0  0  0  0  0  0  0  0  0  0  0
   48.1187   16.1886   -9.6233 C   0  0  0  0  0  0  0  0  0  0  0  0
   46.9462   16.1514   -8.8143 C   0  0  0  0  0  0  0  0  0  0  0  0
   51.7636   18.4728   -4.3593 N   0  0  0  0  0  0  0  0  0  0  0  0
   52.9675   18.3073   -3.5326 C   0  0  2  0  0  0  0  0  0  0  0  0
   53.7000   16.9661   -3.6994 C   0  0  0  0  0  0  0  0  0  0  0  0
   54.9343   16.8976   -3.6694 O   0  0  0  0  0  0  0  0  0  0  0  0
   52.6782   18.4515   -2.0332 C   0  0  0  0  0  0  0  0  0  0  0  0
   53.9152   18.3612   -1.1701 C   0  0  0  0  0  0  0  0  0  0  0  0
   54.7668   19.6353   -1.3187 C   0  0  0  0  0  0  0  0  0  0  0  0
   53.2736   18.1872    0.1899 C   0  0  0  0  0  0  0  0  0  0  0  0
   52.9303   15.9002   -3.7982 N   0  0  0  0  0  0  0  0  0  0  0  0
   53.4103   14.5077   -3.9080 C   0  0  2  0  0  0  0  0  0  0  0  0
   52.7436   13.7908   -5.1088 C   0  0  0  0  0  0  0  0  0  0  0  0
   51.7300   14.2748   -5.6539 O   0  0  0  0  0  0  0  0  0  0  0  0
   53.0924   13.7881   -2.6101 C   0  0  0  0  0  0  0  0  0  0  0  0
   53.1927   12.7454   -5.7048 O   0  0  0  0  0  0  0  0  0  0  0  0
   50.4518   22.5785   -9.9173 H   0  0  0  0  0  0  0  0  0  0  0  0
   52.0283   22.1903  -10.4027 H   0  0  0  0  0  0  0  0  0  0  0  0
   50.7681   19.6661  -12.2515 H   0  0  0  0  0  0  0  0  0  0  0  0
   49.8597   19.6483  -14.4753 H   0  0  0  0  0  0  0  0  0  0  0  0
   48.9010   21.6392  -15.4546 H   0  0  0  0  0  0  0  0  0  0  0  0
   49.1462   23.5595  -14.1269 H   0  0  0  0  0  0  0  0  0  0  0  0
   50.0120   23.7237  -11.9243 H   0  0  0  0  0  0  0  0  0  0  0  0
   51.1493   18.4812   -8.9817 H   0  0  0  0  0  0  0  0  0  0  0  0
   49.8440   18.9403   -6.3437 H   0  0  0  0  0  0  0  0  0  0  0  0
   52.3086   21.0787   -6.8776 H   0  0  0  0  0  0  0  0  0  0  0  0
   50.7612   16.6582   -6.0436 H   0  0  0  0  0  0  0  0  0  0  0  0
   51.5576   16.7728   -7.5672 H   0  0  0  0  0  0  0  0  0  0  0  0
   48.3322   16.9618   -5.8927 H   0  0  0  0  0  0  0  0  0  0  0  0
   50.2099   16.5583   -9.6255 H   0  0  0  0  0  0  0  0  0  0  0  0
   46.1611   16.4221   -6.8715 H   0  0  0  0  0  0  0  0  0  0  0  0
   48.0569   15.9813  -10.6323 H   0  0  0  0  0  0  0  0  0  0  0  0
   46.0383   15.9107   -9.2421 H   0  0  0  0  0  0  0  0  0  0  0  0
   51.1442   19.1314   -3.8870 H   0  0  0  0  0  0  0  0  0  0  0  0
   53.5954   19.0943   -3.8951 H   0  0  0  0  0  0  0  0  0  0  0  0
   52.0043   17.6733   -1.7418 H   0  0  0  0  0  0  0  0  0  0  0  0
   52.2612   19.4257   -1.8851 H   0  0  0  0  0  0  0  0  0  0  0  0
   54.6107   17.5821   -1.4029 H   0  0  0  0  0  0  0  0  0  0  0  0
   54.1645   20.4937   -1.1059 H   0  0  0  0  0  0  0  0  0  0  0  0
   55.1396   19.7004   -2.3196 H   0  0  0  0  0  0  0  0  0  0  0  0
   55.5881   19.5972   -0.6339 H   0  0  0  0  0  0  0  0  0  0  0  0
   52.5909   18.9916    0.3678 H   0  0  0  0  0  0  0  0  0  0  0  0
   54.0319   18.1894    0.9448 H   0  0  0  0  0  0  0  0  0  0  0  0
   52.7447   17.2574    0.2184 H   0  0  0  0  0  0  0  0  0  0  0  0
   51.9564   16.0442   -3.7987 H   0  0  0  0  0  0  0  0  0  0  0  0
   54.4668   14.5012   -4.0772 H   0  0  0  0  0  0  0  0  0  0  0  0
   52.0350   13.7979   -2.4466 H   0  0  0  0  0  0  0  0  0  0  0  0
   53.5834   14.2829   -1.7983 H   0  0  0  0  0  0  0  0  0  0  0  0
   53.4345   12.7761   -2.6703 H   0  0  0  0  0  0  0  0  0  0  0  0
  1  2  2  0  0  0  0
  1  3  1  0  0  0  0
  1 11  1  0  0  0  0
  3  4  1  0  0  0  0
  4  5  1  0  0  0  0
  4 37  1  0  0  0  0
  4 38  1  0  0  0  0
  5  6  2  0  0  0  0
  5 10  1  0  0  0  0
  6  7  1  0  0  0  0
  6 39  1  0  0  0  0
  7  8  2  0  0  0  0
  7 40  1  0  0  0  0
  8  9  1  0  0  0  0
  8 41  1  0  0  0  0
  9 10  2  0  0  0  0
  9 42  1  0  0  0  0
 10 43  1  0  0  0  0
 11 12  1  0  0  0  0
 11 44  1  0  0  0  0
 12 13  1  0  0  0  0
 12 16  1  0  0  0  0
 12 45  1  1  0  0  0
 13 14  2  6  0  0  0
 13 15  1  0  0  0  0
 13 23  1  0  0  0  0
 15 46  1  0  0  0  0
 16 17  1  0  0  0  0
 16 47  1  0  0  0  0
 16 48  1  0  0  0  0
 17 18  2  0  0  0  0
 17 19  1  0  0  0  0
 18 20  1  0  0  0  0
 18 49  1  0  0  0  0
 19 21  2  0  0  0  0
 19 50  1  0  0  0  0
 20 22  2  0  0  0  0
 20 51  1  0  0  0  0
 21 22  1  0  0  0  0
 21 52  1  0  0  0  0
 22 53  1  0  0  0  0
 23 24  1  0  0  0  0
 23 54  1  0  0  0  0
 24 25  1  0  0  0  0
 24 27  1  0  0  0  0
 24 55  1  6  0  0  0
 25 26  2  0  0  0  0
 25 31  1  0  0  0  0
 27 28  1  0  0  0  0
 27 56  1  0  0  0  0
 27 57  1  0  0  0  0
 28 29  1  0  0  0  0
 28 30  1  0  0  0  0
 28 58  1  0  0  0  0
 29 59  1  0  0  0  0
 29 60  1  0  0  0  0
 29 61  1  0  0  0  0
 30 62  1  0  0  0  0
 30 63  1  0  0  0  0
 30 64  1  0  0  0  0
 31 32  1  0  0  0  0
 31 65  1  0  0  0  0
 32 33  1  0  0  0  0
 32 35  1  0  0  0  0
 32 66  1  6  0  0  0
 33 34  2  0  0  0  0
 33 36  1  0  0  0  0
 35 67  1  0  0  0  0
 35 68  1  0  0  0  0
 35 69  1  0  0  0  0
M  END
$$$$
